@<TRIPOS>MOLECULE
DFT_K053_.xyz
 26 27 0 0 0
SMALL
GASTEIGER

@<TRIPOS>ATOM
      1 N           0.0503    1.6496    0.4837 N.ar    1  UNL1       -0.4694
      2 C          -0.0232    0.3788    0.0750 C.ar    1  UNL1        0.2528
      3 C          -1.2618   -0.1789   -0.2537 C.ar    1  UNL1       -0.1731
      4 CA         -2.3690    0.6439   -0.1477 C.ar    1  UNL1        0.2608
      5 N          -2.2941    1.9129    0.2511 N.ar    1  UNL1       -0.5045
      6 C          -1.0756    2.3646    0.5571 C.ar    1  UNL1        0.5838
      7 C          -0.9528    3.7888    1.0103 C.3     1  UNL1       -0.1935
      8 C          -3.7158    0.0675   -0.4952 C.2     1  UNL1        0.5562
      9 O          -3.8700   -1.0747   -0.8523 O.2     1  UNL1       -0.4937
     10 OXT        -4.7197    0.9465   -0.3686 O.3     1  UNL1       -0.5289
     11 C           1.2467   -0.3825    0.0047 C.ar    1  UNL1        0.0205
     12 C           2.4101    0.1462    0.5725 C.ar    1  UNL1       -0.0328
     13 C           3.6015   -0.5535    0.5206 C.ar    1  UNL1       -0.0898
     14 C           3.6651   -1.7947   -0.1050 C.ar    1  UNL1        0.0042
     15 C           2.5134   -2.3303   -0.6816 C.ar    1  UNL1        0.0390
     16 C           1.3185   -1.6268   -0.6226 C.ar    1  UNL1       -0.0782
     17 CL          2.5359   -3.8732   -1.4877 Cl      1  UNL1       -0.0635
     18 CL          5.1821   -2.6402   -0.1506 Cl      1  UNL1       -0.0550
     19 H          -1.3910   -1.2016   -0.5666 H       1  UNL1        0.1042
     20 H          -0.3981    3.8403    1.9471 H       1  UNL1        0.0614
     21 H          -0.3918    4.3670    0.2738 H       1  UNL1        0.0629
     22 H          -1.9363    4.2317    1.1372 H       1  UNL1        0.0556
     23 HXT        -5.5299    0.4759   -0.6149 H       1  UNL1        0.4213
     24 H           2.3647    1.1113    1.0527 H       1  UNL1        0.0723
     25 H           4.4977   -0.1459    0.9645 H       1  UNL1        0.1231
     26 H           0.4517   -2.0680   -1.0899 H       1  UNL1        0.1057
@<TRIPOS>BOND
     1     1     2   ar
     2     2    11    1
     3     2     3   ar
     4     3    19    1
     5     4     3   ar
     6     4     8    1
     7     5     4   ar
     8     6     1   ar
     9     6     5   ar
    10     7     6    1
    11     7    21    1
    12     8     9    2
    13    10     8    1
    14    10    23    1
    15    11    16   ar
    16    12    13   ar
    17    12    11   ar
    18    13    14   ar
    19    14    18    1
    20    14    15   ar
    21    15    17    1
    22    16    15   ar
    23    16    26    1
    24    20     7    1
    25    22     7    1
    26    24    12    1
    27    25    13    1
