@<TRIPOS>MOLECULE
./DFT_K004__PAC_aligned.pdb
 23 24 0 0 0
SMALL
GASTEIGER

@<TRIPOS>ATOM
      1  N         19.7650    1.8970   21.0090 N.ar    1  UNL1       -0.2354
      2  C         20.3900    1.2310   20.0820 C.ar    1  UNL1        0.0750
      3  C         21.7900    1.3050   19.9140 C.ar    1  UNL1       -0.0032
      4  CA        22.4410    2.0590   20.8160 C.ar    1  UNL1        0.1511
      5  N         21.8490    2.6980   21.8220 N.ar    1  UNL1       -0.2288
      6  C         20.4870    2.6340   21.8540 C.ar    1  UNL1        0.1175
      7  C         23.9710    2.1600   20.6280 C.2     1  UNL1        0.3554
      8  OXT       24.7560    2.7510   21.3620 O.2     1  UNL1       -0.2434
      9  O         24.5730    1.3270   19.8280 O.3     1  UNL1       -0.4761
     10  C         19.5010    0.4910   19.1770 C.ar    1  UNL1        0.0032
     11  C         19.9240   -0.7580   18.5580 C.ar    1  UNL1       -0.0524
     12  C         19.1390   -1.5400   17.7100 C.ar    1  UNL1       -0.0584
     13  C         17.8580   -1.0720   17.4220 C.ar    1  UNL1       -0.0264
     14  C         17.3970    0.1370   18.0300 C.ar    1  UNL1        0.1240
     15  C         18.2070    0.8890   18.8960 C.ar    1  UNL1       -0.0173
     16  F         16.0910    0.5360   17.6760 F       1  UNL1       -0.2055
     17  H         22.2600    0.7770   19.0900 H       1  UNL1        0.0662
     18  H         20.0230    3.2830   22.5940 H       1  UNL1        0.1047
     19  H         25.5210    1.3200   20.0480 H       1  UNL1        0.2955
     20  H         20.9190   -1.1550   18.7330 H       1  UNL1        0.0624
     21  H         19.4980   -2.4590   17.2570 H       1  UNL1        0.0619
     22  H         17.1380   -1.6690   16.8690 H       1  UNL1        0.0646
     23  H         17.7890    1.7800   19.3570 H       1  UNL1        0.0653
@<TRIPOS>BOND
     1     1     6   ar
     2     1     2   ar
     3     2    10    1
     4     2     3   ar
     5     3     4   ar
     6     3    17    1
     7     4     5   ar
     8     4     7    1
     9     5     6   ar
    10     6    18    1
    11     7     9    1
    12     7     8    2
    13     9    19    1
    14    10    15   ar
    15    10    11   ar
    16    11    12   ar
    17    11    20    1
    18    12    13   ar
    19    12    21    1
    20    13    22    1
    21    13    14   ar
    22    14    16    1
    23    14    15   ar
    24    15    23    1
