@<TRIPOS>MOLECULE
DFT_K001_.xyz
 23 24 0 0 0
SMALL
GASTEIGER

@<TRIPOS>ATOM
      1 N           0.0555    1.6540    0.4871 N.ar    1  UNL1       -0.5225
      2 C          -0.0204    0.3817    0.0757 C.ar    1  UNL1        0.3764
      3 C          -1.2612   -0.1747   -0.2532 C.ar    1  UNL1       -0.2617
      4 CA         -2.3751    0.6460   -0.1461 C.ar    1  UNL1        0.4347
      5 N          -2.2956    1.9164    0.2511 N.ar    1  UNL1       -0.5679
      6 C          -1.0767    2.3476    0.5510 C.ar    1  UNL1        0.5041
      7 C          -3.7597    0.1475   -0.4758 C.2     1  UNL1        0.4697
      8 O          -4.7579    0.8087   -0.4324 O.2     1  UNL1       -0.4475
      9 OXT        -3.7480   -1.1591   -0.8344 O.3     1  UNL1       -0.5159
     10 C           1.2584   -0.3700    0.0403 C.ar    1  UNL1        0.0366
     11 C           2.3248    0.0572    0.8411 C.ar    1  UNL1       -0.1044
     12 C           3.5337   -0.6166    0.8510 C.ar    1  UNL1       -0.1520
     13 C           3.7206   -1.7356    0.0493 C.ar    1  UNL1       -0.0925
     14 C           2.6854   -2.1715   -0.7636 C.ar    1  UNL1        0.0052
     15 C           1.4717   -1.4931   -0.7619 C.ar    1  UNL1        0.1953
     16 F           0.5031   -1.9329   -1.5810 F       1  UNL1       -0.1388
     17 CL          2.8922   -3.5586   -1.7940 Cl      1  UNL1       -0.0665
     18 H          -1.3637   -1.1965   -0.5701 H       1  UNL1        0.1039
     19 H          -0.9938    3.3760    0.8824 H       1  UNL1        0.0294
     20 HXT        -4.6642   -1.4011   -1.0320 H       1  UNL1        0.4112
     21 H           2.1756    0.9345    1.4514 H       1  UNL1        0.1118
     22 H           4.3390   -0.2724    1.4842 H       1  UNL1        0.1458
     23 H           4.6582   -2.2717    0.0439 H       1  UNL1        0.1294
@<TRIPOS>BOND
     1     1     6   ar
     2     2     1   ar
     3     3     4   ar
     4     3     2   ar
     5     4     5   ar
     6     5     6   ar
     7     6    19    1
     8     7     8    2
     9     7     4    1
    10     9     7    1
    11    10     2    1
    12    10    11   ar
    13    11    21    1
    14    12    11   ar
    15    12    22    1
    16    13    12   ar
    17    14    15   ar
    18    14    13   ar
    19    15    10   ar
    20    16    15    1
    21    17    14    1
    22    18     3    1
    23    20     9    1
    24    23    13    1
