@<TRIPOS>MOLECULE
./DFT_K010__PAC_aligned.pdb
 26 27 0 0 0
SMALL
GASTEIGER

@<TRIPOS>ATOM
      1  N         19.7520    1.9580   20.9560 N.2     1  UNL1       -0.2575
      2  C         20.3760    1.1310   20.0930 C.3     1  UNL1        0.1271
      3  C         21.7640    1.3290   19.8940 C.3     1  UNL1        0.0513
      4  CA        22.4740    2.0930   20.8160 C.2     1  UNL1        0.1329
      5  N         21.8390    2.6810   21.8570 N.2     1  UNL1       -0.2333
      6  C         20.5180    2.6330   21.8810 C.2     1  UNL1        0.1123
      7  C         24.0290    2.1980   20.7290 C.2     1  UNL1        0.3516
      8  O         24.6500    3.0260   21.3140 O.2     1  UNL1       -0.2438
      9  OXT       24.5970    1.1930   20.0520 O.3     1  UNL1       -0.4763
     10  C         19.5880    0.1990   19.3420 C.ar    1  UNL1       -0.0140
     11  C         18.3140   -0.4740   19.7210 C.ar    1  UNL1       -0.0557
     12  C         17.5330   -1.1210   18.6860 C.ar    1  UNL1       -0.0558
     13  C         17.9300   -1.1520   17.4420 C.ar    1  UNL1       -0.0152
     14  C         19.1580   -0.6120   17.1030 C.ar    1  UNL1        0.1266
     15  C         19.9820    0.0150   17.9840 C.ar    1  UNL1       -0.0206
     16  F         19.5540   -0.6190   15.8640 F       1  UNL1       -0.2052
     17  C         17.1900   -1.9460   16.3650 C.3     1  UNL1       -0.0370
     18  H         22.2850    0.8390   19.0760 H       1  UNL1        0.0401
     19  H         20.0080    3.3380   22.5360 H       1  UNL1        0.1043
     20  HXT       25.5100    1.1870   20.3880 H       1  UNL1        0.2954
     21  H         17.9050   -0.5050   20.7260 H       1  UNL1        0.0621
     22  H         16.5620   -1.5050   18.9850 H       1  UNL1        0.0621
     23  H         20.8040    0.5470   17.5170 H       1  UNL1        0.0650
     24  H         16.7640   -1.3450   15.5520 H       1  UNL1        0.0278
     25  H         17.8350   -2.7280   15.9440 H       1  UNL1        0.0278
     26  H         16.2830   -2.4890   16.6570 H       1  UNL1        0.0278
@<TRIPOS>BOND
     1     1     6    2
     2     1     2    1
     3     2    10    1
     4     2     3    1
     5     3     4    1
     6     3    18    1
     7     4     5    2
     8     4     7    1
     9     5     6    1
    10     6    19    1
    11     7     8    2
    12     7     9    1
    13     9    20    1
    14    10    11   ar
    15    10    15   ar
    16    11    21    1
    17    11    12   ar
    18    12    22    1
    19    12    13   ar
    20    13    14   ar
    21    13    17    1
    22    14    15   ar
    23    14    16    1
    24    15    23    1
    25    17    26    1
    26    17    25    1
    27    17    24    1
