@<TRIPOS>MOLECULE
./DFT_K054__PAC_aligned.pdb
 34 36 0 0 0
SMALL
GASTEIGER

@<TRIPOS>ATOM
      1  N         19.7370    1.9350   20.9890 N.ar    1  UNL1       -0.2354
      2  C         20.3840    1.1780   20.1190 C.ar    1  UNL1        0.0750
      3  C         21.7520    1.3350   19.9070 C.ar    1  UNL1       -0.0032
      4  CA        22.5060    2.1030   20.8320 C.ar    1  UNL1        0.1511
      5  N         21.8490    2.6520   21.8310 N.ar    1  UNL1       -0.2288
      6  C         20.4950    2.6210   21.8200 C.ar    1  UNL1        0.1175
      7  C         24.0530    2.2790   20.7240 C.2     1  UNL1        0.3554
      8  O         24.8040    2.8260   21.5140 O.2     1  UNL1       -0.2434
      9  OXT       24.5690    1.8620   19.5820 O.3     1  UNL1       -0.4761
     10  C         19.5670    0.4360   19.1460 C.ar    1  UNL1        0.0021
     11  C         20.0310   -0.5410   18.2910 C.ar    1  UNL1       -0.0490
     12  C         19.3340   -1.0960   17.1990 C.ar    1  UNL1       -0.0178
     13  C         17.9800   -0.9410   17.1700 C.ar    1  UNL1        0.1392
     14  C         17.4240   -0.0490   18.1680 C.ar    1  UNL1        0.0832
     15  C         18.1860    0.6170   19.1470 C.ar    1  UNL1       -0.0306
     16 CL         15.7330    0.3410   18.1890 Cl      1  UNL1       -0.0797
     17  O         17.1460   -1.5500   16.2350 O.3     1  UNL1       -0.4874
     18  C         17.0920   -2.9950   16.0760 C.3     1  UNL1        0.1003
     19  C         16.2840   -3.4750   14.8770 C.3     1  UNL1       -0.0157
     20  C         15.0130   -3.4610   15.7320 C.3     1  UNL1       -0.0464
     21  C         16.0310   -3.7200   16.9010 C.3     1  UNL1       -0.0157
     22  H         22.1910    0.9200   19.0050 H       1  UNL1        0.0662
     23  H         19.9650    3.0060   22.6890 H       1  UNL1        0.1047
     24  HXT       25.5220    2.0530   19.6260 H       1  UNL1        0.2955
     25  H         21.0670   -0.7940   18.4960 H       1  UNL1        0.0625
     26  H         19.8020   -1.7700   16.4890 H       1  UNL1        0.0655
     27  H         17.7290    1.2430   19.9080 H       1  UNL1        0.0640
     28  H         18.0960   -3.4120   16.2130 H       1  UNL1        0.0733
     29  H         16.3200   -2.6370   14.1730 H       1  UNL1        0.0301
     30  H         16.5590   -4.4010   14.3610 H       1  UNL1        0.0301
     31  H         14.4800   -2.5190   15.5660 H       1  UNL1        0.0268
     32  H         14.2030   -4.1770   15.5550 H       1  UNL1        0.0268
     33  H         16.1190   -4.7970   17.0820 H       1  UNL1        0.0301
     34  H         15.7230   -3.2060   17.8170 H       1  UNL1        0.0301
@<TRIPOS>BOND
     1     1     6   ar
     2     1     2   ar
     3     2     3   ar
     4     2    10    1
     5     3     4   ar
     6     3    22    1
     7     4     7    1
     8     4     5   ar
     9     5     6   ar
    10     6    23    1
    11     7     8    2
    12     7     9    1
    13     9    24    1
    14    10    11   ar
    15    10    15   ar
    16    11    25    1
    17    11    12   ar
    18    12    26    1
    19    12    13   ar
    20    13    14   ar
    21    13    17    1
    22    14    15   ar
    23    14    16    1
    24    15    27    1
    25    17    18    1
    26    18    28    1
    27    18    21    1
    28    18    19    1
    29    19    30    1
    30    19    20    1
    31    19    29    1
    32    20    21    1
    33    20    32    1
    34    20    31    1
    35    21    33    1
    36    21    34    1
