@<TRIPOS>MOLECULE
DFT_K081_.xyz
 23 24 0 0 0
SMALL
GASTEIGER

@<TRIPOS>ATOM
      1 N           0.0555    1.6540    0.4871 N.ar    1  UNL1       -0.5215
      2 C          -0.0204    0.3818    0.0757 C.ar    1  UNL1        0.3745
      3 C          -1.2612   -0.1747   -0.2532 C.ar    1  UNL1       -0.2621
      4 CA         -2.3751    0.6460   -0.1461 C.ar    1  UNL1        0.4457
      5 N          -2.2956    1.9163    0.2510 N.ar    1  UNL1       -0.5671
      6 C          -1.0767    2.3475    0.5510 C.ar    1  UNL1        0.4914
      7 C          -3.7596    0.1475   -0.4757 C.2     1  UNL1        0.4592
      8 O          -4.7579    0.8088   -0.4325 O.2     1  UNL1       -0.4445
      9 OXT        -3.7481   -1.1591   -0.8342 O.3     1  UNL1       -0.5158
     10 C           1.2585   -0.3700    0.0404 C.ar    1  UNL1        0.0350
     11 C           2.3250    0.0572    0.8411 C.ar    1  UNL1       -0.1040
     12 C           3.5338   -0.6166    0.8508 C.ar    1  UNL1       -0.1552
     13 C           3.7205   -1.7356    0.0491 C.ar    1  UNL1       -0.0933
     14 C           2.6854   -2.1717   -0.7636 C.ar    1  UNL1        0.0096
     15 C           1.4716   -1.4931   -0.7619 C.ar    1  UNL1        0.2011
     16 F           0.5029   -1.9330   -1.5808 F       1  UNL1       -0.1398
     17 CL          2.8920   -3.5587   -1.7940 Cl      1  UNL1       -0.0663
     18 H          -1.3638   -1.1965   -0.5701 H       1  UNL1        0.1046
     19 H          -0.9936    3.3760    0.8822 H       1  UNL1        0.0356
     20 HXT        -4.6642   -1.4011   -1.0319 H       1  UNL1        0.4120
     21 H           2.1757    0.9346    1.4514 H       1  UNL1        0.1117
     22 H           4.3391   -0.2725    1.4841 H       1  UNL1        0.1469
     23 H           4.6582   -2.2717    0.0438 H       1  UNL1        0.1314
@<TRIPOS>BOND
     1     1     6   ar
     2     2     1   ar
     3     3     4   ar
     4     3     2   ar
     5     4     5   ar
     6     5     6   ar
     7     6    19    1
     8     7     8    2
     9     7     4    1
    10     9     7    1
    11    10     2    1
    12    10    11   ar
    13    11    12   ar
    14    11    21    1
    15    12    22    1
    16    13    23    1
    17    13    12   ar
    18    14    13   ar
    19    15    14   ar
    20    15    10   ar
    21    16    15    1
    22    17    14    1
    23    18     3    1
    24    20     9    1
