@<TRIPOS>MOLECULE
./DFT_K086__PAC_aligned.pdb
 37 39 0 0 0
SMALL
GASTEIGER

@<TRIPOS>ATOM
      1  N         19.7740    1.9340   20.9640 N.ar    1  UNL1       -0.2354
      2  C         20.3490    1.1920   20.0750 C.ar    1  UNL1        0.0750
      3  C         21.7350    1.3040   19.9700 C.ar    1  UNL1       -0.0032
      4  CA        22.4910    2.1290   20.8060 C.ar    1  UNL1        0.1511
      5  N         21.8460    2.6830   21.8530 N.ar    1  UNL1       -0.2288
      6  C         20.5280    2.5830   21.8290 C.ar    1  UNL1        0.1175
      7  C         23.9610    2.4080   20.6290 C.2     1  UNL1        0.3554
      8  O         24.5750    2.3010   19.5710 O.2     1  UNL1       -0.2434
      9  OXT       24.6400    2.6500   21.7870 O.3     1  UNL1       -0.4761
     10  C         19.5370    0.3700   19.1630 C.ar    1  UNL1        0.0021
     11  C         18.2920   -0.1760   19.4740 C.ar    1  UNL1       -0.0490
     12  C         17.6540   -0.9840   18.5230 C.ar    1  UNL1       -0.0178
     13  C         18.2610   -1.3210   17.2690 C.ar    1  UNL1        0.1392
     14  C         19.5440   -0.8410   17.0110 C.ar    1  UNL1        0.0832
     15  C         20.1430   -0.0000   17.8900 C.ar    1  UNL1       -0.0306
     16 CL         20.2530   -1.2080   15.4570 Cl      1  UNL1       -0.0797
     17  O         17.6900   -2.2150   16.3860 O.3     1  UNL1       -0.4874
     18  C         16.2620   -2.3800   16.3580 C.3     1  UNL1        0.1003
     19  C         15.6050   -1.0500   15.7790 C.3     1  UNL1       -0.0158
     20  C         15.0110   -1.4410   14.4000 C.3     1  UNL1       -0.0496
     21  C         14.8410   -2.9780   14.5430 C.3     1  UNL1       -0.0496
     22  C         15.9550   -3.4620   15.3490 C.3     1  UNL1       -0.0158
     23  H         22.3030    0.6990   19.2700 H       1  UNL1        0.0662
     24  H         20.0030    3.0780   22.6440 H       1  UNL1        0.1047
     25  HXT       25.5480    2.4830   21.4770 H       1  UNL1        0.2955
     26  H         17.8110    0.0360   20.4240 H       1  UNL1        0.0625
     27  H         16.7650   -1.4560   18.9320 H       1  UNL1        0.0655
     28  H         21.0640    0.4790   17.5700 H       1  UNL1        0.0640
     29  H         15.8480   -2.5680   17.3570 H       1  UNL1        0.0733
     30  H         14.7900   -0.7030   16.4270 H       1  UNL1        0.0301
     31  H         16.3860   -0.2900   15.6630 H       1  UNL1        0.0301
     32  H         15.6490   -1.2070   13.5390 H       1  UNL1        0.0266
     33  H         14.0850   -0.9520   14.0740 H       1  UNL1        0.0266
     34  H         13.8660   -3.2080   14.9890 H       1  UNL1        0.0266
     35  H         14.7380   -3.3620   13.5200 H       1  UNL1        0.0266
     36  H         15.7200   -4.4030   15.8610 H       1  UNL1        0.0301
     37  H         16.7390   -3.7990   14.6610 H       1  UNL1        0.0301
@<TRIPOS>BOND
     1     1     2   ar
     2     1     6   ar
     3     2    10    1
     4     2     3   ar
     5     3    23    1
     6     3     4   ar
     7     4     7    1
     8     4     5   ar
     9     5     6   ar
    10     6    24    1
    11     7     8    2
    12     7     9    1
    13     9    25    1
    14    10    15   ar
    15    10    11   ar
    16    11    12   ar
    17    11    26    1
    18    12    13   ar
    19    12    27    1
    20    13    17    1
    21    13    14   ar
    22    14    16    1
    23    14    15   ar
    24    15    28    1
    25    17    18    1
    26    18    22    1
    27    18    19    1
    28    18    29    1
    29    19    20    1
    30    19    31    1
    31    19    30    1
    32    20    32    1
    33    20    33    1
    34    20    21    1
    35    21    35    1
    36    21    22    1
    37    21    34    1
    38    22    37    1
    39    22    36    1
