@<TRIPOS>MOLECULE
./DFT_K005__PAC_aligned.pdb
 23 24 0 0 0
SMALL
GASTEIGER

@<TRIPOS>ATOM
      1  N         19.7730    1.9330   20.9450 N.ar    1  UNL1       -0.2354
      2  C         20.3870    1.1900   20.0880 C.ar    1  UNL1        0.0750
      3  C         21.7390    1.3160   19.9420 C.ar    1  UNL1       -0.0032
      4  CA        22.4480    2.0680   20.8040 C.ar    1  UNL1        0.1511
      5  N         21.8660    2.7400   21.8470 N.ar    1  UNL1       -0.2288
      6  C         20.5110    2.5760   21.8700 C.ar    1  UNL1        0.1175
      7  C         23.9800    1.9210   20.7860 C.2     1  UNL1        0.3554
      8  OXT       24.6710    2.5870   21.5270 O.2     1  UNL1       -0.2434
      9  O         24.5690    1.0770   19.8410 O.3     1  UNL1       -0.4761
     10  C         19.6130    0.2790   19.2480 C.ar    1  UNL1        0.0018
     11  C         20.1700   -0.4900   18.2500 C.ar    1  UNL1       -0.0525
     12  C         19.3470   -1.5070   17.6270 C.ar    1  UNL1       -0.0598
     13  C         18.0120   -1.5110   17.7260 C.ar    1  UNL1       -0.0434
     14  C         17.3590   -0.6830   18.6900 C.ar    1  UNL1        0.0416
     15  C         18.1990    0.2800   19.4470 C.ar    1  UNL1       -0.0342
     16 CL         15.6590   -0.6220   19.0510 Cl      1  UNL1       -0.0835
     17  H         22.2770    0.7130   19.2180 H       1  UNL1        0.0662
     18  H         19.8790    3.2460   22.4510 H       1  UNL1        0.1047
     19  H         25.5240    1.0390   20.0200 H       1  UNL1        0.2955
     20  H         21.2100   -0.5340   17.9400 H       1  UNL1        0.0624
     21  H         19.7910   -1.9850   16.7590 H       1  UNL1        0.0618
     22  H         17.4590   -2.3030   17.2290 H       1  UNL1        0.0632
     23  H         17.7020    0.8190   20.2480 H       1  UNL1        0.0639
@<TRIPOS>BOND
     1     1     2   ar
     2     1     6   ar
     3     2     3   ar
     4     2    10    1
     5     3    17    1
     6     3     4   ar
     7     4     7    1
     8     4     5   ar
     9     5     6   ar
    10     6    18    1
    11     7     9    1
    12     7     8    2
    13     9    19    1
    14    10    11   ar
    15    10    15   ar
    16    11    20    1
    17    11    12   ar
    18    12    21    1
    19    12    13   ar
    20    13    22    1
    21    13    14   ar
    22    14    15   ar
    23    14    16    1
    24    15    23    1
