@<TRIPOS>MOLECULE
./DFT_K053__PAC_aligned.pdb
 26 27 0 0 0
SMALL
GASTEIGER

@<TRIPOS>ATOM
      1  N         19.7540    1.8880   21.0290 N.ar    1  UNL1       -0.2323
      2  C         20.3570    1.2410   20.0260 C.ar    1  UNL1        0.0753
      3  C         21.7500    1.2740   19.9320 C.ar    1  UNL1       -0.0032
      4  CA        22.5350    2.0870   20.8480 C.ar    1  UNL1        0.1514
      5  N         21.8280    2.7230   21.8030 N.ar    1  UNL1       -0.2257
      6  C         20.4990    2.6110   21.8600 C.ar    1  UNL1        0.1275
      7  C         19.8310    3.1300   23.0520 C.3     1  UNL1       -0.0046
      8  C         24.0010    2.0480   20.8870 C.2     1  UNL1        0.3554
      9  O         24.6720    1.3610   20.1090 O.2     1  UNL1       -0.2434
     10  OXT       24.5370    2.4940   22.0370 O.3     1  UNL1       -0.4761
     11  C         19.5790    0.3570   19.1310 C.ar    1  UNL1        0.0019
     12  C         18.2340    0.6640   18.8210 C.ar    1  UNL1       -0.0511
     13  C         17.5430   -0.1070   17.8480 C.ar    1  UNL1       -0.0413
     14  C         18.0590   -1.2950   17.3440 C.ar    1  UNL1        0.0593
     15  C         19.3890   -1.4920   17.5610 C.ar    1  UNL1        0.0599
     16  C         20.1910   -0.7320   18.4410 C.ar    1  UNL1       -0.0328
     17 CL         20.1150   -2.9180   16.9040 Cl      1  UNL1       -0.0820
     18 CL         17.0210   -2.3830   16.3230 Cl      1  UNL1       -0.0820
     19  H         22.3700    0.7130   19.2390 H       1  UNL1        0.0662
     20  H         20.2980    4.0930   23.2880 H       1  UNL1        0.0308
     21  H         19.8870    2.3810   23.8520 H       1  UNL1        0.0308
     22  H         18.8170    3.4120   22.7410 H       1  UNL1        0.0308
     23  HXT       25.4900    2.3030   21.9960 H       1  UNL1        0.2955
     24  H         17.7290    1.5260   19.2450 H       1  UNL1        0.0625
     25  H         16.4990    0.0900   17.6190 H       1  UNL1        0.0633
     26  H         21.2030   -1.0360   18.6980 H       1  UNL1        0.0639
@<TRIPOS>BOND
     1     1     6   ar
     2     1     2   ar
     3     2     3   ar
     4     2    11    1
     5     3     4   ar
     6     3    19    1
     7     4     8    1
     8     4     5   ar
     9     5     6   ar
    10     6     7    1
    11     7    20    1
    12     7    22    1
    13     7    21    1
    14     8     9    2
    15     8    10    1
    16    10    23    1
    17    11    16   ar
    18    11    12   ar
    19    12    24    1
    20    12    13   ar
    21    13    25    1
    22    13    14   ar
    23    14    15   ar
    24    14    18    1
    25    15    16   ar
    26    15    17    1
    27    16    26    1
