@<TRIPOS>MOLECULE
./DFT_K045__PAC_aligned.pdb
 23 24 0 0 0
SMALL
GASTEIGER

@<TRIPOS>ATOM
      1  N         19.7140    1.8570   21.0410 N.2     1  UNL1       -0.2531
      2  C         20.3530    1.2420   20.0640 C.3     1  UNL1        0.1762
      3  C         21.8060    1.3350   19.8880 C.2     1  UNL1        0.1654
      4  CA        22.4880    1.9970   20.8640 C.2     1  UNL1        0.1722
      5  N         21.8620    2.7750   21.8140 N.pl3   1  UNL1       -0.1939
      6  C         20.5010    2.6180   21.8250 C.2     1  UNL1        0.1024
      7  C         23.9720    1.8790   21.0570 C.2     1  UNL1        0.3556
      8  OXT       24.6570    2.7470   21.5130 O.2     1  UNL1       -0.2435
      9  O         24.5430    0.9250   20.3300 O.3     1  UNL1       -0.4762
     10  F         22.3940    0.7560   18.8960 F       1  UNL1       -0.2049
     11  C         19.5470    0.2960   19.3080 C.ar    1  UNL1       -0.0089
     12  C         20.0390   -0.9150   18.7420 C.ar    1  UNL1       -0.0543
     13  C         19.1670   -1.8370   18.0340 C.ar    1  UNL1       -0.0416
     14  C         17.8200   -1.5320   17.9280 C.ar    1  UNL1        0.0593
     15  C         17.2820   -0.3980   18.5590 C.ar    1  UNL1        0.0596
     16  C         18.1950    0.4500   19.2720 C.ar    1  UNL1       -0.0360
     17 CL         15.4800    0.1090   18.5440 Cl      1  UNL1       -0.0820
     18 CL         16.8210   -2.5850   17.0600 Cl      1  UNL1       -0.0820
     19  H         19.9520    3.1890   22.5710 H       1  UNL1        0.1014
     20  H         25.4450    1.2700   20.2170 H       1  UNL1        0.2955
     21  H         21.0710   -1.2470   18.8020 H       1  UNL1        0.0622
     22  H         19.5610   -2.7570   17.6150 H       1  UNL1        0.0633
     23  H         17.8360    1.4190   19.6090 H       1  UNL1        0.0636
@<TRIPOS>BOND
     1     1     2    1
     2     1     6    2
     3     2     3    1
     4     2    11    1
     5     3    10    1
     6     3     4    2
     7     4     7    1
     8     4     5    1
     9     5     6    1
    10     6    19    1
    11     7     9    1
    12     7     8    2
    13     9    20    1
    14    11    12   ar
    15    11    16   ar
    16    12    13   ar
    17    12    21    1
    18    13    22    1
    19    13    14   ar
    20    14    18    1
    21    14    15   ar
    22    15    16   ar
    23    15    17    1
    24    16    23    1
