@<TRIPOS>MOLECULE
./DFT_K052__PAC_aligned.pdb
 23 24 0 0 0
SMALL
GASTEIGER

@<TRIPOS>ATOM
      1  N         19.7340    1.9070   21.0290 N.ar    1  UNL1       -0.2354
      2  C         20.3750    1.2690   20.0540 C.ar    1  UNL1        0.0749
      3  C         21.7860    1.2740   19.9680 C.ar    1  UNL1       -0.0032
      4  CA        22.5060    2.0840   20.8010 C.ar    1  UNL1        0.1511
      5  N         21.8170    2.7080   21.7990 N.ar    1  UNL1       -0.2288
      6  C         20.5050    2.5820   21.8460 C.ar    1  UNL1        0.1175
      7  C         23.9860    2.3450   20.6240 C.2     1  UNL1        0.3554
      8  O         24.8560    2.0970   21.4680 O.2     1  UNL1       -0.2434
      9  OXT       24.2660    3.0290   19.5370 O.3     1  UNL1       -0.4761
     10  C         19.6140    0.3430   19.1820 C.ar    1  UNL1        0.0006
     11  C         18.7100   -0.5660   19.7350 C.ar    1  UNL1       -0.0512
     12  C         18.0560   -1.5440   18.8860 C.ar    1  UNL1       -0.0428
     13  C         18.2640   -1.4700   17.4730 C.ar    1  UNL1        0.0410
     14  C         19.2380   -0.5500   16.9510 C.ar    1  UNL1       -0.0428
     15  C         19.9070    0.2930   17.8100 C.ar    1  UNL1       -0.0512
     16 CL         17.2580   -2.4560   16.4350 Cl      1  UNL1       -0.0835
     17  H         22.3030    0.8010   19.1370 H       1  UNL1        0.0662
     18  H         19.9930    3.1790   22.5970 H       1  UNL1        0.1047
     19  HXT       25.2300    3.0640   19.6650 H       1  UNL1        0.2955
     20  H         18.5990   -0.5800   20.8160 H       1  UNL1        0.0625
     21  H         17.3330   -2.2470   19.2900 H       1  UNL1        0.0632
     22  H         19.4010   -0.5680   15.8770 H       1  UNL1        0.0632
     23  H         20.6210    1.0130   17.4210 H       1  UNL1        0.0625
@<TRIPOS>BOND
     1     1     2   ar
     2     1     6   ar
     3     2    10    1
     4     2     3   ar
     5     3    17    1
     6     3     4   ar
     7     4     7    1
     8     4     5   ar
     9     5     6   ar
    10     6    18    1
    11     7     8    2
    12     7     9    1
    13     9    19    1
    14    10    11   ar
    15    10    15   ar
    16    11    12   ar
    17    11    20    1
    18    12    21    1
    19    12    13   ar
    20    13    16    1
    21    13    14   ar
    22    14    22    1
    23    14    15   ar
    24    15    23    1
