@<TRIPOS>MOLECULE
DFT_K075_.xyz
 30 31 0 0 0
SMALL
GASTEIGER

@<TRIPOS>ATOM
      1 N           0.0513    1.6592    0.4903 N.ar    1  UNL1       -0.4962
      2 C          -0.0252    0.3908    0.0601 C.ar    1  UNL1        0.2420
      3 C          -1.2640   -0.2003   -0.2425 C.ar    1  UNL1        0.0056
      4 CA         -2.3712    0.6508   -0.1500 C.ar    1  UNL1        0.3729
      5 N          -2.2898    1.9192    0.2427 N.ar    1  UNL1       -0.5151
      6 C          -1.0744    2.3514    0.5650 C.ar    1  UNL1        0.4075
      7 C          -3.7793    0.1936   -0.4618 C.2     1  UNL1        0.4039
      8 O          -4.6847    0.2142    0.3228 O.2     1  UNL1       -0.4223
      9 OXT        -3.8994   -0.1779   -1.7527 O.3     1  UNL1       -0.4978
     10 C          -1.4543   -1.6692   -0.5800 C.3     1  UNL1        0.0342
     11 O          -2.6204   -2.2153    0.0058 O.3     1  UNL1       -0.2885
     12 C          -2.5042   -2.4834    1.3956 C.3     1  UNL1        0.0586
     13 C           1.2796   -0.3089   -0.0555 C.ar    1  UNL1        0.0019
     14 C           2.2596   -0.1016    0.9194 C.ar    1  UNL1       -0.1493
     15 C           3.4909   -0.7237    0.8233 C.ar    1  UNL1       -0.0579
     16 C           3.7828   -1.5484   -0.2596 C.ar    1  UNL1        0.0168
     17 C           2.8232   -1.7410   -1.2521 C.ar    1  UNL1        0.0154
     18 C           1.5814   -1.1265   -1.1427 C.ar    1  UNL1       -0.0028
     19 CL          3.1426   -2.7348   -2.6450 Cl      1  UNL1       -0.0630
     20 CL          5.3437   -2.3069   -0.3450 Cl      1  UNL1       -0.0596
     21 H          -0.9987    3.3737    0.9168 H       1  UNL1        0.0642
     22 HXT        -4.8147   -0.4708   -1.8805 H       1  UNL1        0.4194
     23 H          -1.5808   -1.7962   -1.6560 H       1  UNL1        0.0916
     24 H          -0.5749   -2.2412   -0.2745 H       1  UNL1        0.0749
     25 H          -1.6886   -3.1881    1.5905 H       1  UNL1        0.0586
     26 H          -2.3358   -1.5720    1.9765 H       1  UNL1        0.0587
     27 H          -3.4460   -2.9273    1.7080 H       1  UNL1        0.1050
     28 H           2.0480    0.5555    1.7493 H       1  UNL1        0.1362
     29 H           4.2430   -0.5742    1.5837 H       1  UNL1        0.1162
     30 H           0.8702   -1.2703   -1.9420 H       1  UNL1        0.0584
@<TRIPOS>BOND
     1     1     6   ar
     2     1     2   ar
     3     2     3   ar
     4     3    10    1
     5     4     3   ar
     6     4     7    1
     7     5     4   ar
     8     6     5   ar
     9     7     8    2
    10     9    22    1
    11     9     7    1
    12    10    24    1
    13    10    11    1
    14    11    12    1
    15    12    26    1
    16    12    25    1
    17    12    27    1
    18    13     2    1
    19    13    14   ar
    20    14    28    1
    21    15    14   ar
    22    15    29    1
    23    16    15   ar
    24    17    18   ar
    25    17    16   ar
    26    18    13   ar
    27    19    17    1
    28    20    16    1
    29    21     6    1
    30    23    10    1
    31    30    18    1
