@<TRIPOS>MOLECULE
./DFT_K085__PAC_aligned.pdb
 34 36 0 0 0
SMALL
GASTEIGER

@<TRIPOS>ATOM
      1  N         19.7540    1.8500   21.0380 N.ar    1  UNL1       -0.2354
      2  C         20.3520    1.2190   20.0000 C.ar    1  UNL1        0.0750
      3  C         21.7610    1.2700   19.8880 C.ar    1  UNL1       -0.0032
      4  CA        22.4770    2.0690   20.8470 C.ar    1  UNL1        0.1511
      5  N         21.8680    2.7540   21.8840 N.ar    1  UNL1       -0.2288
      6  C         20.5110    2.6620   21.8400 C.ar    1  UNL1        0.1175
      7  C         24.0170    1.8890   20.8040 C.2     1  UNL1        0.3554
      8  O         24.7220    2.3540   21.6900 O.2     1  UNL1       -0.2434
      9  OXT       24.6130    1.3740   19.7000 O.3     1  UNL1       -0.4761
     10  C         19.4940    0.5120   18.9660 C.ar    1  UNL1        0.0021
     11  C         20.0120   -0.4040   17.9720 C.ar    1  UNL1       -0.0490
     12  C         19.2190   -1.0770   16.9980 C.ar    1  UNL1       -0.0178
     13  C         17.8990   -0.6440   17.0070 C.ar    1  UNL1        0.1392
     14  C         17.2850    0.2260   17.9700 C.ar    1  UNL1        0.0832
     15  C         18.1260    0.7710   18.9560 C.ar    1  UNL1       -0.0306
     16 CL         15.6310    0.7520   17.8390 Cl      1  UNL1       -0.0797
     17  O         17.1040   -1.1010   16.0400 O.3     1  UNL1       -0.4874
     18  C         16.3180   -2.2750   16.2330 C.3     1  UNL1        0.1003
     19  C         16.9640   -3.5180   15.5530 C.3     1  UNL1       -0.0157
     20  C         16.3140   -3.0790   14.1940 C.3     1  UNL1       -0.0464
     21  C         15.2350   -2.3480   15.1230 C.3     1  UNL1       -0.0157
     22  H         22.3430    0.8180   19.0900 H       1  UNL1        0.0662
     23  H         19.9660    3.3250   22.5080 H       1  UNL1        0.1047
     24  HXT       25.5010    1.7700   19.7120 H       1  UNL1        0.2955
     25  H         21.0700   -0.6440   17.9790 H       1  UNL1        0.0625
     26  H         19.6170   -1.9070   16.4220 H       1  UNL1        0.0655
     27  H         17.6690    1.4340   19.6850 H       1  UNL1        0.0640
     28  H         16.1130   -2.3110   17.3080 H       1  UNL1        0.0733
     29  H         18.0470   -3.6470   15.6530 H       1  UNL1        0.0301
     30  H         16.4350   -4.4260   15.8610 H       1  UNL1        0.0301
     31  H         16.9440   -2.3740   13.6410 H       1  UNL1        0.0268
     32  H         15.9310   -3.8490   13.5150 H       1  UNL1        0.0268
     33  H         14.3610   -2.9140   15.4610 H       1  UNL1        0.0301
     34  H         14.9150   -1.3990   14.6800 H       1  UNL1        0.0301
@<TRIPOS>BOND
     1     1     6   ar
     2     1     2   ar
     3     2     3   ar
     4     2    10    1
     5     3     4   ar
     6     3    22    1
     7     4     5   ar
     8     4     7    1
     9     5     6   ar
    10     6    23    1
    11     7     8    2
    12     7     9    1
    13     9    24    1
    14    10    15   ar
    15    10    11   ar
    16    11    25    1
    17    11    12   ar
    18    12    13   ar
    19    12    26    1
    20    13    14   ar
    21    13    17    1
    22    14    15   ar
    23    14    16    1
    24    15    27    1
    25    17    18    1
    26    18    28    1
    27    18    19    1
    28    18    21    1
    29    19    29    1
    30    19    30    1
    31    19    20    1
    32    20    21    1
    33    20    31    1
    34    20    32    1
    35    21    33    1
    36    21    34    1
