@<TRIPOS>MOLECULE
DFT_K011_.xyz
 23 24 0 0 0
SMALL
GASTEIGER

@<TRIPOS>ATOM
      1 N           0.0555    1.6537    0.4850 N.ar    1  UNL1       -0.4454
      2 C          -0.0183    0.3810    0.0755 C.ar    1  UNL1        0.2821
      3 C          -1.2617   -0.1728   -0.2501 C.ar    1  UNL1       -0.1644
      4 CA         -2.3754    0.6465   -0.1488 C.ar    1  UNL1        0.3679
      5 N          -2.2964    1.9164    0.2514 N.ar    1  UNL1       -0.5321
      6 C          -1.0772    2.3462    0.5526 C.ar    1  UNL1        0.4520
      7 C          -3.7579    0.1503   -0.4885 C.2     1  UNL1        0.4825
      8 O          -4.7545    0.8140   -0.4638 O.2     1  UNL1       -0.4448
      9 OXT        -3.7480   -1.1614   -0.8359 O.3     1  UNL1       -0.5299
     10 C           1.2483   -0.3830   -0.0020 C.ar    1  UNL1        0.0119
     11 C           1.3201   -1.6476   -0.5947 C.ar    1  UNL1       -0.2437
     12 C           2.5208   -2.3363   -0.6537 C.ar    1  UNL1       -0.1116
     13 C           3.6609   -1.7655   -0.1165 C.ar    1  UNL1        0.2174
     14 C           3.6158   -0.5077    0.4768 C.ar    1  UNL1        0.0102
     15 C           2.4145    0.1771    0.5289 C.ar    1  UNL1       -0.0008
     16 CL          5.0647    0.1865    1.1423 Cl      1  UNL1       -0.0578
     17 F           4.8167   -2.4349   -0.1741 F       1  UNL1       -0.1522
     18 H          -1.3737   -1.1972   -0.5616 H       1  UNL1        0.0741
     19 H          -0.9949    3.3733    0.8886 H       1  UNL1        0.0368
     20 HXT        -4.6641   -1.4001   -1.0384 H       1  UNL1        0.4145
     21 H           0.4439   -2.1040   -1.0302 H       1  UNL1        0.1789
     22 H           2.5919   -3.3114   -1.1137 H       1  UNL1        0.1377
     23 H           2.3711    1.1553    0.9815 H       1  UNL1        0.0608
@<TRIPOS>BOND
     1     1     6   ar
     2     2     1   ar
     3     3     4   ar
     4     3     2   ar
     5     4     5   ar
     6     5     6   ar
     7     6    19    1
     8     7     8    2
     9     7     4    1
    10     9     7    1
    11    10     2    1
    12    10    15   ar
    13    11    10   ar
    14    12    11   ar
    15    12    13   ar
    16    13    14   ar
    17    14    15   ar
    18    14    16    1
    19    15    23    1
    20    17    13    1
    21    18     3    1
    22    20     9    1
    23    21    11    1
    24    22    12    1
