@<TRIPOS>MOLECULE
./DFT_K081__PAC_aligned.pdb
 23 24 0 0 0
SMALL
GASTEIGER

@<TRIPOS>ATOM
      1  N         19.7890    1.8360   21.0620 N.ar    1  UNL1       -0.2353
      2  C         20.3340    1.2940   20.0040 C.ar    1  UNL1        0.0777
      3  C         21.7540    1.2720   19.9310 C.ar    1  UNL1       -0.0031
      4  CA        22.5040    2.0360   20.8730 C.ar    1  UNL1        0.1511
      5  N         21.8230    2.7910   21.8130 N.ar    1  UNL1       -0.2288
      6  C         20.5190    2.5940   21.8140 C.ar    1  UNL1        0.1175
      7  C         24.0260    2.2940   20.7990 C.2     1  UNL1        0.3554
      8  OXT       24.8000    1.5880   20.1660 O.2     1  UNL1       -0.2434
      9  O         24.4830    3.3340   21.5160 O.3     1  UNL1       -0.4761
     10  C         19.4220    0.5180   19.1060 C.ar    1  UNL1        0.0371
     11  C         18.5050   -0.4140   19.6660 C.ar    1  UNL1       -0.0497
     12  C         17.7410   -1.2350   18.8670 C.ar    1  UNL1       -0.0596
     13  C         17.8450   -1.2310   17.4830 C.ar    1  UNL1       -0.0406
     14  C         18.7470   -0.3300   16.8880 C.ar    1  UNL1        0.0767
     15  C         19.5640    0.5460   17.6880 C.ar    1  UNL1        0.1507
     16  F         20.3860    1.3840   17.0820 F       1  UNL1       -0.2033
     17 CL         18.8190   -0.1550   15.1440 Cl      1  UNL1       -0.0806
     18  H         22.3280    0.6040   19.2940 H       1  UNL1        0.0662
     19  H         20.0680    3.0220   22.7060 H       1  UNL1        0.1047
     20  H         25.4300    3.1610   21.3760 H       1  UNL1        0.2955
     21  H         18.2590   -0.3330   20.7210 H       1  UNL1        0.0625
     22  H         17.0960   -1.9660   19.3450 H       1  UNL1        0.0618
     23  H         17.3770   -2.0250   16.9070 H       1  UNL1        0.0633
@<TRIPOS>BOND
     1     1     6   ar
     2     1     2   ar
     3     2     3   ar
     4     2    10    1
     5     3     4   ar
     6     3    18    1
     7     4     5   ar
     8     4     7    1
     9     5     6   ar
    10     6    19    1
    11     7     9    1
    12     7     8    2
    13     9    20    1
    14    10    15   ar
    15    10    11   ar
    16    11    21    1
    17    11    12   ar
    18    12    13   ar
    19    12    22    1
    20    13    14   ar
    21    13    23    1
    22    14    15   ar
    23    14    17    1
    24    15    16    1
