@<TRIPOS>MOLECULE
DFT_K099_.xyz
 24 25 0 0 0
SMALL
GASTEIGER

@<TRIPOS>ATOM
      1 N1          0.0440    1.6476    0.4833 N.ar    1  <1>        -0.4698
      2 C1         -0.0009    0.3808    0.0767 C.ar    1  <1>         0.3522
      3 C2         -1.2607   -0.1892   -0.2557 C.ar    1  <1>         0.0206
      4 C3         -2.3812    0.6517   -0.1462 C.ar    1  <1>         0.3001
      5 N2         -2.2924    1.9242    0.2535 N.ar    1  <1>        -0.5115
      6 C4         -1.0822    2.3559    0.5541 C.ar    1  <1>         0.3866
      7 C5         -3.7215    0.1070   -0.4779 C.2     1  <1>         0.5009
      8 O1         -3.8988   -1.0509   -0.8338 O.2     1  <1>        -0.4930
      9 O2         -4.7230    0.9735   -0.3586 O.3     1  <1>        -0.4978
     10 O3         -1.3564   -1.4673   -0.6357 O.3     1  <1>        -0.4294
     11 C6          1.2877   -0.3498    0.0263 C.ar    1  <1>         0.0352
     12 C7          1.4992   -1.5057   -0.7348 C.ar    1  <1>        -0.1322
     13 C8          2.7439   -2.1134   -0.7578 C.ar    1  <1>        -0.0700
     14 C9          3.8006   -1.5979   -0.0182 C.ar    1  <1>         0.0154
     15 C10         3.6013   -0.4468    0.7468 C.ar    1  <1>         0.0391
     16 C11         2.3612    0.1676    0.7594 C.ar    1  <1>        -0.0161
     17 Cl1         4.8898    0.2439    1.6941 Cl      1  <1>        -0.0711
     18 Cl2         5.3396   -2.4031   -0.0688 Cl      1  <1>        -0.0642
     19 H1         -0.9907    3.3821    0.8867 H       1  <1>         0.0555
     20 H2         -5.5357    0.5030   -0.5991 H       1  <1>         0.4297
     21 H3         -2.3123   -1.6510   -0.8000 H       1  <1>         0.3770
     22 H4          0.7005   -1.9311   -1.3168 H       1  <1>         0.1312
     23 H5          2.9058   -2.9998   -1.3530 H       1  <1>         0.1141
     24 H6          2.2198    1.0656    1.3395 H       1  <1>         0.0678
@<TRIPOS>BOND
     1     1     6   ar
     2     2     1   ar
     3     3     4   ar
     4     3     2   ar
     5     4     5   ar
     6     5     6   ar
     7     6    19    1
     8     7     9    1
     9     7     4    1
    10     8     7    2
    11    10     3    1
    12    11     2    1
    13    11    16   ar
    14    12    11   ar
    15    13    12   ar
    16    13    14   ar
    17    14    15   ar
    18    15    16   ar
    19    15    17    1
    20    16    24    1
    21    18    14    1
    22    20     9    1
    23    21    10    1
    24    22    12    1
    25    23    13    1
