@<TRIPOS>MOLECULE
./DFT_K007__PAC_aligned.pdb
 31 33 0 0 0
SMALL
GASTEIGER

@<TRIPOS>ATOM
      1  C         19.7190    1.8470   21.0600 C.ar    1  UNL1        0.1395
      2  C         20.3950    1.2430   19.9750 C.ar    1  UNL1        0.0826
      3  C         21.7980    1.2690   19.8760 C.ar    1  UNL1       -0.0395
      4  C         22.5280    1.9960   20.8320 C.ar    1  UNL1       -0.0545
      5  C         21.8600    2.7810   21.7950 C.ar    1  UNL1       -0.0122
      6  C         20.4240    2.6880   21.9580 C.ar    1  UNL1       -0.0128
      7  C         22.6600    3.8000   22.6530 C.3     1  UNL1        0.1307
      8  C         22.0670    4.5520   23.6740 C.2     1  UNL1       -0.0195
      9  CA        22.9540    5.3980   24.3690 C.2     1  UNL1        0.1474
     10  N         24.2440    5.6280   23.9820 N.2     1  UNL1       -0.2320
     11  C         24.7210    4.6920   23.0890 C.2     1  UNL1        0.1025
     12  N         24.0150    3.7420   22.5200 N.pl3   1  UNL1       -0.2208
     13  C         22.4880    6.0660   25.6690 C.2     1  UNL1        0.3551
     14  O         21.4180    5.8150   26.2020 O.2     1  UNL1       -0.2434
     15  OXT       22.9160    7.3370   25.6760 O.3     1  UNL1       -0.4761
     16 CL         19.5910    0.2330   18.8830 Cl      1  UNL1       -0.0798
     17  O         18.3750    1.6330   21.2110 O.3     1  UNL1       -0.4874
     18  C         17.7600    2.9020   21.0610 C.3     1  UNL1        0.1005
     19  C         16.4120    2.9130   20.3200 C.3     1  UNL1       -0.0124
     20  C         17.6980    3.4260   19.6370 C.3     1  UNL1       -0.0124
     21  H         22.2960    0.7680   19.0510 H       1  UNL1        0.0633
     22  H         23.6050    2.1270   20.7790 H       1  UNL1        0.0622
     23  H         19.9640    3.1420   22.8310 H       1  UNL1        0.0658
     24  H         21.0690    4.3710   24.0610 H       1  UNL1        0.0621
     25  H         25.7590    4.6510   22.7620 H       1  UNL1        0.1015
     26  HXT       22.4290    7.4730   26.5070 H       1  UNL1        0.2955
     27  H         17.8240    3.6140   21.8820 H       1  UNL1        0.0733
     28  H         15.6910    3.6800   20.5890 H       1  UNL1        0.0302
     29  H         16.0550    1.9100   20.0960 H       1  UNL1        0.0302
     30  H         17.7460    4.4890   19.4120 H       1  UNL1        0.0302
     31  H         17.9790    2.8300   18.7730 H       1  UNL1        0.0302
@<TRIPOS>BOND
     1     1    17    1
     2     1     2   ar
     3     1     6   ar
     4     2    16    1
     5     2     3   ar
     6     3    21    1
     7     3     4   ar
     8     4    22    1
     9     4     5   ar
    10     5     6   ar
    11     5     7    1
    12     6    23    1
    13     7    12    1
    14     7     8    1
    15     8    24    1
    16     8     9    2
    17     9    13    1
    18     9    10    1
    19    10    11    2
    20    11    12    1
    21    11    25    1
    22    13    14    2
    23    13    15    1
    24    15    26    1
    25    17    18    1
    26    18    19    1
    27    18    27    1
    28    18    20    1
    29    19    29    1
    30    19    28    1
    31    19    20    1
    32    20    31    1
    33    20    30    1
