@<TRIPOS>MOLECULE
./DFT_K012__PAC_aligned.pdb
 27 28 0 0 0
SMALL
GASTEIGER

@<TRIPOS>ATOM
      1  N         19.7280    1.9150   21.0240 N.ar    1  UNL1       -0.2354
      2  C         20.3680    1.2300   20.0630 C.ar    1  UNL1        0.0750
      3  C         21.8030    1.2730   19.9150 C.ar    1  UNL1       -0.0032
      4  CA        22.4760    2.1060   20.8350 C.ar    1  UNL1        0.1511
      5  N         21.8640    2.6860   21.8060 N.ar    1  UNL1       -0.2288
      6  C         20.4840    2.6130   21.8540 C.ar    1  UNL1        0.1175
      7  C         24.0370    2.4350   20.6830 C.2     1  UNL1        0.3554
      8  O         24.6720    3.3140   21.2280 O.2     1  UNL1       -0.2434
      9  OXT       24.6590    1.4460   20.0090 O.3     1  UNL1       -0.4761
     10  C         19.5780    0.4240   19.0750 C.ar    1  UNL1        0.0021
     11  C         19.5280    0.6280   17.7400 C.ar    1  UNL1       -0.0490
     12  C         18.8770   -0.3390   16.9540 C.ar    1  UNL1       -0.0179
     13  C         18.1010   -1.3710   17.4760 C.ar    1  UNL1        0.1384
     14  C         18.0740   -1.5530   18.9070 C.ar    1  UNL1        0.0831
     15  C         18.8370   -0.6490   19.6860 C.ar    1  UNL1       -0.0306
     16 CL         17.0420   -2.7130   19.7580 Cl      1  UNL1       -0.0797
     17  O         17.5700   -2.5160   16.7600 O.3     1  UNL1       -0.4937
     18  C         17.8300   -2.8210   15.3610 C.3     1  UNL1        0.0789
     19  H         22.2610    0.6080   19.1890 H       1  UNL1        0.0662
     20  H         19.9430    3.1430   22.6350 H       1  UNL1        0.1047
     21  HXT       25.5880    1.5530   20.2760 H       1  UNL1        0.2955
     22  H         20.0350    1.4340   17.2180 H       1  UNL1        0.0625
     23  H         19.0400   -0.3320   15.8810 H       1  UNL1        0.0655
     24  H         18.7680   -0.7150   20.7680 H       1  UNL1        0.0640
     25  H         18.8830   -3.1270   15.3310 H       1  UNL1        0.0660
     26  H         17.6900   -1.9990   14.6470 H       1  UNL1        0.0660
     27  H         17.2690   -3.7090   15.0430 H       1  UNL1        0.0660
@<TRIPOS>BOND
     1     1     6   ar
     2     1     2   ar
     3     2    10    1
     4     2     3   ar
     5     3     4   ar
     6     3    19    1
     7     4     5   ar
     8     4     7    1
     9     5     6   ar
    10     6    20    1
    11     7     8    2
    12     7     9    1
    13     9    21    1
    14    10    15   ar
    15    10    11   ar
    16    11    22    1
    17    11    12   ar
    18    12    13   ar
    19    12    23    1
    20    13    14   ar
    21    13    17    1
    22    14    16    1
    23    14    15   ar
    24    15    24    1
    25    17    18    1
    26    18    27    1
    27    18    26    1
    28    18    25    1
