@<TRIPOS>MOLECULE
DFT_K004_.xyz
 23 24 0 0 0
SMALL
GASTEIGER

@<TRIPOS>ATOM
      1 N           0.0558    1.6537    0.4854 N.ar    1  UNL1       -0.4860
      2 C          -0.0184    0.3812    0.0753 C.ar    1  UNL1        0.3301
      3 C          -1.2617   -0.1726   -0.2502 C.ar    1  UNL1       -0.2083
      4 CA         -2.3756    0.6462   -0.1485 C.ar    1  UNL1        0.4008
      5 N          -2.2963    1.9164    0.2512 N.ar    1  UNL1       -0.5514
      6 C          -1.0772    2.3461    0.5524 C.ar    1  UNL1        0.4785
      7 C          -3.7585    0.1495   -0.4859 C.2     1  UNL1        0.4814
      8 O          -4.7562    0.8118   -0.4557 O.2     1  UNL1       -0.4482
      9 OXT        -3.7483   -1.1605   -0.8387 O.3     1  UNL1       -0.5326
     10 C           1.2485   -0.3846   -0.0024 C.ar    1  UNL1        0.0568
     11 C           1.3234   -1.6302   -0.6347 C.ar    1  UNL1       -0.1778
     12 C           2.5260   -2.3210   -0.6913 C.ar    1  UNL1       -0.1583
     13 C           3.6751   -1.7901   -0.1187 C.ar    1  UNL1       -0.0932
     14 C           3.5844   -0.5549    0.5008 C.ar    1  UNL1        0.1428
     15 C           2.4047    0.1567    0.5682 C.ar    1  UNL1       -0.0026
     16 F           4.6921   -0.0278    1.0592 F       1  UNL1       -0.1573
     17 H          -1.3712   -1.1978   -0.5599 H       1  UNL1        0.0853
     18 H          -0.9949    3.3735    0.8877 H       1  UNL1        0.0327
     19 HXT        -4.6650   -1.3988   -1.0388 H       1  UNL1        0.4145
     20 H           0.4513   -2.0626   -1.1019 H       1  UNL1        0.1559
     21 H           2.5714   -3.2801   -1.1884 H       1  UNL1        0.1408
     22 H           4.6219   -2.3097   -0.1485 H       1  UNL1        0.1299
     23 H           2.3729    1.1201    1.0529 H       1  UNL1        0.0746
@<TRIPOS>BOND
     1     1     6   ar
     2     2     1   ar
     3     3     4   ar
     4     3     2   ar
     5     4     5   ar
     6     5     6   ar
     7     6    18    1
     8     7     8    2
     9     7     4    1
    10     9     7    1
    11    10     2    1
    12    10    15   ar
    13    11    10   ar
    14    12    11   ar
    15    12    13   ar
    16    13    14   ar
    17    14    15   ar
    18    14    16    1
    19    15    23    1
    20    17     3    1
    21    19     9    1
    22    20    11    1
    23    21    12    1
    24    22    13    1
