@<TRIPOS>MOLECULE
./DFT_K102__PAC_aligned.pdb
 25 26 0 0 0
SMALL
GASTEIGER

@<TRIPOS>ATOM
      1  N         19.7180    1.9030   21.0380 N.2     1  UNL1       -0.2542
      2  C         20.3910    1.2430   20.0910 C.3     1  UNL1        0.1614
      3  C         21.8090    1.2760   19.9070 C.2     1  UNL1        0.0672
      4  CA        22.4580    2.1100   20.8070 C.2     1  UNL1        0.1576
      5  N         21.8400    2.6530   21.8470 N.pl3   1  UNL1       -0.1949
      6  C         20.5070    2.6400   21.8070 C.2     1  UNL1        0.1023
      7  C         23.9480    2.2510   20.9200 C.2     1  UNL1        0.3545
      8  O         24.4630    2.9420   21.7660 O.2     1  UNL1       -0.2436
      9  OXT       24.7750    1.6940   20.0060 O.3     1  UNL1       -0.4762
     10  N         22.4760    0.6930   18.7990 N.pl3   1  UNL1       -0.3573
     11  C         19.4960    0.3410   19.2050 C.ar    1  UNL1       -0.0100
     12  C         19.4560   -1.0650   19.2940 C.ar    1  UNL1       -0.0543
     13  C         18.3930   -1.8430   18.7570 C.ar    1  UNL1       -0.0416
     14  C         17.3790   -1.1960   17.9530 C.ar    1  UNL1        0.0593
     15  C         17.5310    0.2590   17.7240 C.ar    1  UNL1        0.0596
     16  C         18.4940    0.9890   18.4030 C.ar    1  UNL1       -0.0360
     17 CL         16.4820    0.9710   16.5780 Cl      1  UNL1       -0.0820
     18 CL         16.1380   -2.1460   17.1630 Cl      1  UNL1       -0.0820
     19  H         20.0260    2.9540   22.7310 H       1  UNL1        0.1014
     20  HXT       25.5770    2.0360   20.4380 H       1  UNL1        0.2955
     21  H         23.4720    0.8640   18.8570 H       1  UNL1        0.1422
     22  H         22.2420   -0.2380   18.4790 H       1  UNL1        0.1422
     23  H         20.1640   -1.6180   19.9040 H       1  UNL1        0.0622
     24  H         18.5010   -2.9210   18.8160 H       1  UNL1        0.0633
     25  H         18.5750    2.0670   18.3060 H       1  UNL1        0.0636
@<TRIPOS>BOND
     1     1     6    2
     2     1     2    1
     3     2     3    1
     4     2    11    1
     5     3     4    2
     6     3    10    1
     7     4     7    1
     8     4     5    1
     9     5     6    1
    10     6    19    1
    11     7     8    2
    12     7     9    1
    13     9    20    1
    14    10    21    1
    15    10    22    1
    16    11    12   ar
    17    11    16   ar
    18    12    23    1
    19    12    13   ar
    20    13    24    1
    21    13    14   ar
    22    14    18    1
    23    14    15   ar
    24    15    16   ar
    25    15    17    1
    26    16    25    1
