@<TRIPOS>MOLECULE
DFT_K012_.xyz
 27 28 0 0 0
SMALL
GASTEIGER

@<TRIPOS>ATOM
      1 N           0.0555    1.6536    0.4857 N.ar    1  UNL1       -0.4275
      2 C          -0.0176    0.3803    0.0765 C.ar    1  UNL1        0.2984
      3 C          -1.2617   -0.1720   -0.2518 C.ar    1  UNL1       -0.1961
      4 CA         -2.3755    0.6462   -0.1478 C.ar    1  UNL1        0.3803
      5 N          -2.2970    1.9166    0.2522 N.ar    1  UNL1       -0.5290
      6 C          -1.0772    2.3464    0.5509 C.ar    1  UNL1        0.4303
      7 C          -3.7586    0.1465   -0.4789 C.2     1  UNL1        0.4885
      8 O          -4.7626    0.7966   -0.4114 O.2     1  UNL1       -0.4517
      9 OXT        -3.7421   -1.1523   -0.8715 O.3     1  UNL1       -0.5308
     10 C           1.2458   -0.3878    0.0049 C.ar    1  UNL1        0.0124
     11 C           1.3190   -1.6507   -0.5905 C.ar    1  UNL1       -0.2594
     12 C           2.5187   -2.3404   -0.6364 C.ar    1  UNL1       -0.0704
     13 C           3.6800   -1.7983   -0.0919 C.ar    1  UNL1        0.1458
     14 C           3.6084   -0.5281    0.4923 C.ar    1  UNL1        0.0289
     15 C           2.4128    0.1658    0.5398 C.ar    1  UNL1       -0.0013
     16 CL          5.0503    0.2092    1.1486 Cl      1  UNL1       -0.0692
     17 O           4.8554   -2.4792   -0.2058 O.3     1  UNL1       -0.2812
     18 C           5.2626   -3.2236    0.9490 C.3     1  UNL1        0.0193
     19 H          -1.3723   -1.1958   -0.5653 H       1  UNL1        0.0791
     20 H          -0.9944    3.3745    0.8838 H       1  UNL1        0.0383
     21 HXT        -4.6600   -1.3931   -1.0630 H       1  UNL1        0.4133
     22 H           0.4457   -2.1019   -1.0378 H       1  UNL1        0.1759
     23 H           2.5840   -3.3101   -1.1099 H       1  UNL1        0.1232
     24 H           2.3738    1.1473    0.9855 H       1  UNL1        0.0405
     25 H           6.2102   -3.6883    0.6897 H       1  UNL1        0.0919
     26 H           5.4009   -2.5714    1.8122 H       1  UNL1        0.0542
     27 H           4.5280   -3.9970    1.1859 H       1  UNL1        0.0599
@<TRIPOS>BOND
     1     1     6   ar
     2     2     1   ar
     3     3     4   ar
     4     3     2   ar
     5     4     5   ar
     6     5     6   ar
     7     6    20    1
     8     7     8    2
     9     7     4    1
    10     9     7    1
    11    10     2    1
    12    10    15   ar
    13    11    10   ar
    14    12    11   ar
    15    12    13   ar
    16    13    14   ar
    17    14    15   ar
    18    14    16    1
    19    15    24    1
    20    17    13    1
    21    17    18    1
    22    18    27    1
    23    18    26    1
    24    19     3    1
    25    21     9    1
    26    22    11    1
    27    23    12    1
    28    25    18    1
