@<TRIPOS>MOLECULE
DFT_K052_.xyz
 23 24 0 0 0
SMALL
GASTEIGER

@<TRIPOS>ATOM
      1 N           0.0558    1.6539    0.4854 N.ar    1  UNL1       -0.4860
      2 C          -0.0177    0.3803    0.0763 C.ar    1  UNL1        0.3364
      3 C          -1.2618   -0.1721   -0.2512 C.ar    1  UNL1       -0.2317
      4 CA         -2.3756    0.6462   -0.1484 C.ar    1  UNL1        0.4140
      5 N          -2.2969    1.9164    0.2521 N.ar    1  UNL1       -0.5583
      6 C          -1.0772    2.3462    0.5514 C.ar    1  UNL1        0.4829
      7 C          -3.7590    0.1477   -0.4807 C.2     1  UNL1        0.4761
      8 O          -4.7626    0.7977   -0.4094 O.2     1  UNL1       -0.4465
      9 OXT        -3.7425   -1.1491   -0.8797 O.3     1  UNL1       -0.5323
     10 C           1.2467   -0.3856    0.0043 C.ar    1  UNL1        0.0338
     11 C           1.3239   -1.6320   -0.6256 C.ar    1  UNL1       -0.1846
     12 C           2.5177   -2.3347   -0.6815 C.ar    1  UNL1       -0.0386
     13 C           3.6534   -1.7896   -0.0980 C.ar    1  UNL1        0.0300
     14 C           3.6074   -0.5523    0.5318 C.ar    1  UNL1       -0.0490
     15 C           2.4095    0.1418    0.5764 C.ar    1  UNL1       -0.0270
     16 CL          5.1610   -2.6713   -0.1605 Cl      1  UNL1       -0.0782
     17 H          -1.3726   -1.1969   -0.5622 H       1  UNL1        0.0916
     18 H          -0.9948    3.3742    0.8846 H       1  UNL1        0.0305
     19 HXT        -4.6605   -1.3896   -1.0710 H       1  UNL1        0.4154
     20 H           0.4540   -2.0653   -1.0973 H       1  UNL1        0.1520
     21 H           2.5700   -3.2936   -1.1754 H       1  UNL1        0.1143
     22 H           4.4995   -0.1409    0.9804 H       1  UNL1        0.1135
     23 H           2.3596    1.1067    1.0573 H       1  UNL1        0.0694
@<TRIPOS>BOND
     1     1     6   ar
     2     2     1   ar
     3     3     4   ar
     4     3     2   ar
     5     4     5   ar
     6     5     6   ar
     7     6    18    1
     8     7     8    2
     9     7     4    1
    10     9     7    1
    11    10     2    1
    12    10    15   ar
    13    11    10   ar
    14    12    11   ar
    15    12    13   ar
    16    13    14   ar
    17    14    15   ar
    18    14    22    1
    19    15    23    1
    20    16    13    1
    21    17     3    1
    22    19     9    1
    23    20    11    1
    24    21    12    1
