@<TRIPOS>MOLECULE
./DFT_K065__PAC_aligned.pdb
 23 24 0 0 0
SMALL
GASTEIGER

@<TRIPOS>ATOM
      1  N         19.7130    1.8950   21.0020 N.ar    1  UNL1       -0.2354
      2  C         20.3800    1.2470   20.0750 C.ar    1  UNL1        0.0750
      3  C         21.7640    1.2550   19.9240 C.ar    1  UNL1       -0.0032
      4  CA        22.4910    2.1090   20.7990 C.ar    1  UNL1        0.1511
      5  N         21.8750    2.7200   21.8790 N.ar    1  UNL1       -0.2288
      6  C         20.5000    2.5980   21.8180 C.ar    1  UNL1        0.1175
      7  C         23.9890    2.2990   20.5880 C.2     1  UNL1        0.3554
      8  O         24.5330    1.8370   19.6150 O.2     1  UNL1       -0.2434
      9  OXT       24.5790    3.4560   21.1360 O.3     1  UNL1       -0.4761
     10  C         19.4570    0.5580   19.0670 C.ar    1  UNL1        0.0032
     11  C         18.1850    0.0320   19.5270 C.ar    1  UNL1       -0.0341
     12  C         17.3660   -0.5890   18.5270 C.ar    1  UNL1        0.0430
     13  C         17.7610   -0.6330   17.1980 C.ar    1  UNL1       -0.0250
     14  C         19.0470   -0.1520   16.8750 C.ar    1  UNL1        0.0430
     15  C         19.7990    0.4720   17.7800 C.ar    1  UNL1       -0.0341
     16 CL         19.6460   -0.4010   15.1310 Cl      1  UNL1       -0.0835
     17 CL         15.8210   -1.3780   19.0680 Cl      1  UNL1       -0.0835
     18  H         22.2180    0.7170   19.0980 H       1  UNL1        0.0662
     19  H         19.9590    3.1790   22.5620 H       1  UNL1        0.1047
     20  HXT       25.3950    3.4390   20.6070 H       1  UNL1        0.2955
     21  H         17.9070    0.0870   20.5760 H       1  UNL1        0.0639
     22  H         17.2570   -1.1390   16.3790 H       1  UNL1        0.0647
     23  H         20.7730    0.7930   17.4210 H       1  UNL1        0.0639
@<TRIPOS>BOND
     1     1     2   ar
     2     1     6   ar
     3     2    10    1
     4     2     3   ar
     5     3    18    1
     6     3     4   ar
     7     4     7    1
     8     4     5   ar
     9     5     6   ar
    10     6    19    1
    11     7     8    2
    12     7     9    1
    13     9    20    1
    14    10    15   ar
    15    10    11   ar
    16    11    12   ar
    17    11    21    1
    18    12    13   ar
    19    12    17    1
    20    13    22    1
    21    13    14   ar
    22    14    16    1
    23    14    15   ar
    24    15    23    1
