@<TRIPOS>MOLECULE
./DFT_K003__PAC_aligned.pdb
 23 24 0 0 0
SMALL
GASTEIGER

@<TRIPOS>ATOM
      1  N         19.7540    1.8940   21.0210 N.ar    1  UNL1       -0.2354
      2  C         20.4390    1.2470   20.0560 C.ar    1  UNL1        0.0750
      3  C         21.7660    1.2890   19.8970 C.ar    1  UNL1       -0.0032
      4  CA        22.4760    2.0140   20.8160 C.ar    1  UNL1        0.1511
      5  N         21.7990    2.7450   21.7940 N.ar    1  UNL1       -0.2288
      6  C         20.4890    2.6350   21.9120 C.ar    1  UNL1        0.1175
      7  C         24.0080    2.0270   20.7610 C.2     1  UNL1        0.3554
      8  OXT       24.6310    1.4550   19.8740 O.2     1  UNL1       -0.2434
      9  O         24.6300    2.8930   21.5780 O.3     1  UNL1       -0.4761
     10  C         19.4730    0.5140   19.2120 C.ar    1  UNL1        0.0033
     11  C         19.5900   -0.8480   18.8270 C.ar    1  UNL1       -0.0510
     12  C         18.8320   -1.5220   17.8290 C.ar    1  UNL1       -0.0400
     13  C         17.6930   -0.8540   17.4200 C.ar    1  UNL1        0.0761
     14  C         17.5020    0.5050   17.7890 C.ar    1  UNL1        0.1422
     15  C         18.3630    1.1270   18.6380 C.ar    1  UNL1       -0.0158
     16  F         16.5190    1.2580   17.3120 F       1  UNL1       -0.2039
     17 CL         16.6350   -1.5980   16.2440 Cl      1  UNL1       -0.0806
     18  H         22.2010    0.5560   19.2240 H       1  UNL1        0.0662
     19  H         20.0210    3.2690   22.6610 H       1  UNL1        0.1047
     20  H         25.5310    2.5990   21.3630 H       1  UNL1        0.2955
     21  H         20.4670   -1.3060   19.2760 H       1  UNL1        0.0625
     22  H         19.1210   -2.5420   17.5990 H       1  UNL1        0.0633
     23  H         18.3140    2.1990   18.8050 H       1  UNL1        0.0653
@<TRIPOS>BOND
     1     1     6   ar
     2     1     2   ar
     3     2    10    1
     4     2     3   ar
     5     3     4   ar
     6     3    18    1
     7     4     5   ar
     8     4     7    1
     9     5     6   ar
    10     6    19    1
    11     7     9    1
    12     7     8    2
    13     9    20    1
    14    10    11   ar
    15    10    15   ar
    16    11    21    1
    17    11    12   ar
    18    12    22    1
    19    12    13   ar
    20    13    17    1
    21    13    14   ar
    22    14    15   ar
    23    14    16    1
    24    15    23    1
