@<TRIPOS>MOLECULE
./DFT_K104__PAC_aligned.pdb
 35 37 0 0 0
SMALL
GASTEIGER

@<TRIPOS>ATOM
      1  N         19.2970    0.5830   19.2450 N.pl3   1  UNL1       -0.3288
      2  C         20.0460    1.2330   20.2030 C.ar    1  UNL1        0.0483
      3  C         21.4830    1.3490   20.0780 C.ar    1  UNL1       -0.0389
      4  C         22.1450    2.1690   20.9420 C.ar    1  UNL1       -0.0543
      5  C         21.4980    2.8100   22.0330 C.ar    1  UNL1       -0.0153
      6  C         22.2530    3.6800   22.9970 C.3     1  UNL1        0.1271
      7  N         23.4150    3.3050   23.4170 N.2     1  UNL1       -0.2575
      8  C         23.8900    3.9390   24.5570 C.2     1  UNL1        0.1123
      9  N         23.2820    4.9530   25.1400 N.2     1  UNL1       -0.2333
     10  CA        22.2330    5.4340   24.6790 C.2     1  UNL1        0.1329
     11  C         21.6630    4.8220   23.6230 C.3     1  UNL1        0.0513
     12  C         21.5820    6.5840   25.4280 C.2     1  UNL1        0.3516
     13  OXT       20.4930    7.0420   25.0720 O.2     1  UNL1       -0.2438
     14  O         22.2770    7.2370   26.4070 O.3     1  UNL1       -0.4763
     15  C         20.1190    2.5940   22.1710 C.ar    1  UNL1       -0.0360
     16  C         19.4380    1.8500   21.3420 C.ar    1  UNL1        0.0623
     17 CL         17.7070    1.9520   21.4850 Cl      1  UNL1       -0.0816
     18  C         18.8540    1.2410   18.0940 C.3     1  UNL1        0.0123
     19  C         18.0870    0.1120   17.3360 C.3     1  UNL1       -0.0358
     20  C         17.5160   -0.7600   18.4240 C.3     1  UNL1       -0.0358
     21  C         18.6200   -0.6640   19.4310 C.3     1  UNL1        0.0123
     22  H         21.9440    0.7930   19.2670 H       1  UNL1        0.0637
     23  H         23.1990    2.3200   20.7260 H       1  UNL1        0.0622
     24  H         24.7580    3.5710   25.0990 H       1  UNL1        0.1043
     25  H         20.7460    5.1940   23.1750 H       1  UNL1        0.0401
     26  H         21.6290    7.8210   26.8380 H       1  UNL1        0.2954
     27  H         19.5840    2.9760   23.0360 H       1  UNL1        0.0636
     28  H         19.6330    1.5910   17.4050 H       1  UNL1        0.0464
     29  H         18.1360    2.0630   18.2070 H       1  UNL1        0.0464
     30  H         18.7820   -0.3790   16.6440 H       1  UNL1        0.0281
     31  H         17.2930    0.5200   16.7000 H       1  UNL1        0.0281
     32  H         17.3700   -1.7710   18.0260 H       1  UNL1        0.0281
     33  H         16.5570   -0.3930   18.8080 H       1  UNL1        0.0281
     34  H         19.3260   -1.4700   19.1970 H       1  UNL1        0.0464
     35  H         18.3120   -0.8250   20.4720 H       1  UNL1        0.0464
@<TRIPOS>BOND
     1     1     2    1
     2     1    21    1
     3     1    18    1
     4     2     3   ar
     5     2    16   ar
     6     3     4   ar
     7     3    22    1
     8     4    23    1
     9     4     5   ar
    10     5     6    1
    11     5    15   ar
    12     6     7    1
    13     6    11    1
    14     7     8    2
    15     8    24    1
    16     8     9    1
    17     9    10    2
    18    10    12    1
    19    10    11    1
    20    11    25    1
    21    12    14    1
    22    12    13    2
    23    14    26    1
    24    15    27    1
    25    15    16   ar
    26    16    17    1
    27    18    28    1
    28    18    19    1
    29    18    29    1
    30    19    20    1
    31    19    30    1
    32    19    31    1
    33    20    21    1
    34    20    32    1
    35    20    33    1
    36    21    34    1
    37    21    35    1
