@<TRIPOS>MOLECULE
DFT_K014_.xyz
 26 28 0 0 0
SMALL
GASTEIGER

@<TRIPOS>ATOM
      1 N           0.0555    1.6538    0.4854 N.ar    1  UNL1       -0.5120
      2 C          -0.0155    0.3795    0.0751 C.ar    1  UNL1        0.3468
      3 C          -1.2622   -0.1716   -0.2499 C.ar    1  UNL1       -0.1854
      4 CA         -2.3755    0.6465   -0.1483 C.ar    1  UNL1        0.3717
      5 N          -2.2979    1.9177    0.2512 N.ar    1  UNL1       -0.5551
      6 C          -1.0779    2.3450    0.5521 C.ar    1  UNL1        0.4750
      7 C          -3.7579    0.1470   -0.4808 C.2     1  UNL1        0.4960
      8 O          -4.7624    0.7973   -0.4185 O.2     1  UNL1       -0.4524
      9 OXT        -3.7426   -1.1536   -0.8695 O.3     1  UNL1       -0.5352
     10 C           1.2481   -0.3874    0.0009 C.ar    1  UNL1        0.0705
     11 C           2.3923    0.1299    0.6100 C.ar    1  UNL1       -0.0543
     12 C           3.5789   -0.5951    0.5476 C.ar    1  UNL1        0.0829
     13 C           3.5957   -1.8219   -0.1322 C.ar    1  UNL1        0.1831
     14 C           2.4826   -2.3588   -0.7550 C.ar    1  UNL1       -0.1306
     15 C           1.3111   -1.6246   -0.6754 C.ar    1  UNL1       -0.2289
     16 O           4.8401   -2.3734   -0.0839 O.2     1  UNL1       -0.1679
     17 C           5.6175   -1.4932    0.6298 C.ar    1  UNL1        0.0457
     18 C           4.9226   -0.4114    1.0356 C.ar    1  UNL1       -0.2730
     19 H          -1.3736   -1.1975   -0.5564 H       1  UNL1        0.0774
     20 H          -0.9952    3.3728    0.8870 H       1  UNL1        0.0363
     21 HXT        -4.6609   -1.3926   -1.0609 H       1  UNL1        0.4113
     22 H           2.3352    1.0815    1.1162 H       1  UNL1        0.0909
     23 H           2.5289   -3.3008   -1.2814 H       1  UNL1        0.1282
     24 H           0.4324   -2.0128   -1.1683 H       1  UNL1        0.1686
     25 H           6.6434   -1.7893    0.7573 H       1  UNL1        0.1687
     26 H           5.3082    0.4151    1.6068 H       1  UNL1        0.1743
@<TRIPOS>BOND
     1     1     6   ar
     2     2     1   ar
     3     3     4   ar
     4     3     2   ar
     5     4     5   ar
     6     5     6   ar
     7     6    20    1
     8     7     8    2
     9     7     4    1
    10     9     7    1
    11    10     2    1
    12    10    11   ar
    13    11    22    1
    14    12    11   ar
    15    12    18   ar
    16    13    16   ar
    17    13    12   ar
    18    14    15   ar
    19    14    13   ar
    20    15    10   ar
    21    16    17   ar
    22    17    25    1
    23    17    18   ar
    24    18    26    1
    25    19     3    1
    26    21     9    1
    27    23    14    1
    28    24    15    1
