@<TRIPOS>MOLECULE
./DFT_K011__PAC_aligned.pdb
 23 24 0 0 0
SMALL
GASTEIGER

@<TRIPOS>ATOM
      1  N         19.7160    1.9230   21.0140 N.2     1  UNL1       -0.2575
      2  C         20.3800    1.2060   20.1140 C.3     1  UNL1        0.1271
      3  C         21.7880    1.3530   19.8840 C.3     1  UNL1        0.0513
      4  CA        22.5370    2.0220   20.8590 C.2     1  UNL1        0.1329
      5  N         21.7970    2.7140   21.7700 N.2     1  UNL1       -0.2333
      6  C         20.5050    2.6060   21.8570 C.2     1  UNL1        0.1123
      7  C         24.1150    2.0310   20.7320 C.2     1  UNL1        0.3516
      8  O         24.7300    1.0260   20.3280 O.2     1  UNL1       -0.2438
      9  OXT       24.7450    2.9540   21.3940 O.3     1  UNL1       -0.4763
     10  C         19.5310    0.3240   19.2040 C.ar    1  UNL1       -0.0152
     11  C         20.0530   -0.8330   18.6590 C.ar    1  UNL1       -0.0534
     12  C         19.2640   -1.5310   17.7880 C.ar    1  UNL1       -0.0247
     13  C         17.9430   -1.1230   17.4890 C.ar    1  UNL1        0.1416
     14  C         17.3840   -0.0610   18.0880 C.ar    1  UNL1        0.0764
     15  C         18.2170    0.7620   18.9070 C.ar    1  UNL1       -0.0350
     16 CL         15.6250    0.2250   17.9590 Cl      1  UNL1       -0.0806
     17  F         17.2150   -1.8700   16.6600 F       1  UNL1       -0.2040
     18  H         22.3950    0.8630   19.1290 H       1  UNL1        0.0401
     19  H         20.0220    2.9410   22.7720 H       1  UNL1        0.1043
     20  HXT       25.6690    2.7330   21.1820 H       1  UNL1        0.2954
     21  H         21.0480   -1.1930   18.9020 H       1  UNL1        0.0622
     22  H         19.7710   -2.3170   17.2360 H       1  UNL1        0.0647
     23  H         17.7170    1.5670   19.4400 H       1  UNL1        0.0636
@<TRIPOS>BOND
     1     1     2    1
     2     1     6    2
     3     2     3    1
     4     2    10    1
     5     3    18    1
     6     3     4    1
     7     4     7    1
     8     4     5    2
     9     5     6    1
    10     6    19    1
    11     7     8    2
    12     7     9    1
    13     9    20    1
    14    10    11   ar
    15    10    15   ar
    16    11    12   ar
    17    11    21    1
    18    12    22    1
    19    12    13   ar
    20    13    17    1
    21    13    14   ar
    22    14    15   ar
    23    14    16    1
    24    15    23    1
