@<TRIPOS>MOLECULE
./DFT_K105__PAC_aligned.pdb
 40 42 0 0 0
SMALL
GASTEIGER

@<TRIPOS>ATOM
      1  N         19.7350    1.8740   21.0210 N.ar    1  UNL1       -0.2354
      2  C         20.3730    1.2580   20.0340 C.ar    1  UNL1        0.0750
      3  C         21.7440    1.3030   19.9450 C.ar    1  UNL1       -0.0032
      4  CA        22.5240    2.0290   20.8450 C.ar    1  UNL1        0.1511
      5  N         21.8450    2.7820   21.7960 N.ar    1  UNL1       -0.2288
      6  C         20.5020    2.5780   21.8560 C.ar    1  UNL1        0.1175
      7  C         24.0710    2.0670   20.8210 C.2     1  UNL1        0.3554
      8  O         24.7670    2.8870   21.3390 O.2     1  UNL1       -0.2434
      9  OXT       24.7260    1.0850   20.0890 O.3     1  UNL1       -0.4761
     10  C         19.4620    0.5650   18.9920 C.ar    1  UNL1        0.0021
     11  C         18.0730    0.9040   18.8150 C.ar    1  UNL1       -0.0490
     12  C         17.2480    0.0110   18.0250 C.ar    1  UNL1       -0.0178
     13  C         17.8430   -1.0390   17.2530 C.ar    1  UNL1        0.1392
     14  C         19.2620   -1.2240   17.3750 C.ar    1  UNL1        0.0832
     15  C         20.0190   -0.4400   18.1790 C.ar    1  UNL1       -0.0306
     16 CL         20.1280   -2.3440   16.3010 Cl      1  UNL1       -0.0797
     17  O         17.0740   -1.9430   16.4450 O.3     1  UNL1       -0.4874
     18  C         15.7150   -1.6190   15.9920 C.3     1  UNL1        0.1003
     19  C         14.6370   -2.1160   17.0210 C.3     1  UNL1       -0.0158
     20  C         14.1460   -3.6350   16.8810 C.3     1  UNL1       -0.0497
     21  C         13.6260   -3.9430   15.4390 C.3     1  UNL1       -0.0528
     22  C         14.0740   -2.9040   14.4060 C.3     1  UNL1       -0.0497
     23  C         15.5430   -2.4030   14.6320 C.3     1  UNL1       -0.0158
     24  H         22.3220    0.8870   19.1240 H       1  UNL1        0.0662
     25  H         20.0180    2.9530   22.7560 H       1  UNL1        0.1047
     26  HXT       25.5960    1.4100   20.3780 H       1  UNL1        0.2955
     27  H         17.5560    1.6690   19.3870 H       1  UNL1        0.0625
     28  H         16.1650    0.0720   18.0750 H       1  UNL1        0.0655
     29  H         21.0770   -0.6850   18.1780 H       1  UNL1        0.0640
     30  H         15.7180   -0.5360   15.8190 H       1  UNL1        0.0733
     31  H         13.8220   -1.3950   16.8850 H       1  UNL1        0.0301
     32  H         14.9960   -1.9100   18.0380 H       1  UNL1        0.0301
     33  H         14.9630   -4.3090   17.1630 H       1  UNL1        0.0266
     34  H         13.3930   -3.7820   17.6650 H       1  UNL1        0.0266
     35  H         14.0470   -4.8960   15.0980 H       1  UNL1        0.0265
     36  H         12.5320   -4.0350   15.4130 H       1  UNL1        0.0265
     37  H         13.3390   -2.0900   14.4150 H       1  UNL1        0.0266
     38  H         13.9250   -3.2400   13.3730 H       1  UNL1        0.0266
     39  H         15.7740   -1.7240   13.8030 H       1  UNL1        0.0301
     40  H         16.1100   -3.3390   14.7140 H       1  UNL1        0.0301
@<TRIPOS>BOND
     1     1     6   ar
     2     1     2   ar
     3     2     3   ar
     4     2    10    1
     5     3     4   ar
     6     3    24    1
     7     4     5   ar
     8     4     7    1
     9     5     6   ar
    10     6    25    1
    11     7     8    2
    12     7     9    1
    13     9    26    1
    14    10    15   ar
    15    10    11   ar
    16    11    27    1
    17    11    12   ar
    18    12    28    1
    19    12    13   ar
    20    13    14   ar
    21    13    17    1
    22    14    15   ar
    23    14    16    1
    24    15    29    1
    25    17    18    1
    26    18    19    1
    27    18    30    1
    28    18    23    1
    29    19    32    1
    30    19    20    1
    31    19    31    1
    32    20    34    1
    33    20    33    1
    34    20    21    1
    35    21    35    1
    36    21    36    1
    37    21    22    1
    38    22    23    1
    39    22    37    1
    40    22    38    1
    41    23    40    1
    42    23    39    1
