@<TRIPOS>MOLECULE
./DFT_K044__PAC_aligned.pdb
 33 34 0 0 0
SMALL
GASTEIGER

@<TRIPOS>ATOM
      1  N         19.7810    1.9640   20.9900 N.ar    1  UNL1       -0.2354
      2  C         20.3460    1.1980   20.0180 C.ar    1  UNL1        0.0750
      3  C         21.7950    1.2620   19.9580 C.ar    1  UNL1       -0.0032
      4  CA        22.4420    2.1030   20.8120 C.ar    1  UNL1        0.1511
      5  N         21.8270    2.7370   21.8150 N.ar    1  UNL1       -0.2288
      6  C         20.5330    2.5610   21.9040 C.ar    1  UNL1        0.1175
      7  C         23.9680    2.4320   20.6120 C.2     1  UNL1        0.3554
      8  O         24.5320    3.3480   21.2730 O.2     1  UNL1       -0.2434
      9  OXT       24.7000    1.3260   20.2640 O.3     1  UNL1       -0.4761
     10  C         19.4470    0.5540   19.0080 C.ar    1  UNL1        0.0021
     11  C         18.0730    0.9820   18.8110 C.ar    1  UNL1       -0.0490
     12  C         17.2680    0.1880   17.9510 C.ar    1  UNL1       -0.0178
     13  C         17.7590   -0.8800   17.2230 C.ar    1  UNL1        0.1391
     14  C         19.1140   -1.2520   17.4000 C.ar    1  UNL1        0.0832
     15  C         19.9670   -0.5480   18.2980 C.ar    1  UNL1       -0.0306
     16 CL         19.8130   -2.5540   16.4280 Cl      1  UNL1       -0.0797
     17  O         17.0300   -1.6310   16.2340 O.3     1  UNL1       -0.4879
     18  C         15.6780   -1.2720   15.7410 C.3     1  UNL1        0.0947
     19  C         15.0970   -2.4230   14.9760 C.3     1  UNL1       -0.0281
     20  C         15.8480   -0.0560   14.7830 C.3     1  UNL1       -0.0281
     21  H         22.3050    0.8520   19.0920 H       1  UNL1        0.0662
     22  H         20.0270    3.1050   22.6990 H       1  UNL1        0.1047
     23  HXT       25.6080    1.6250   20.0820 H       1  UNL1        0.2955
     24  H         17.8120    1.9250   19.2830 H       1  UNL1        0.0625
     25  H         16.1970    0.3670   17.9660 H       1  UNL1        0.0655
     26  H         20.9890   -0.9020   18.3950 H       1  UNL1        0.0640
     27  H         15.0560   -0.9270   16.5760 H       1  UNL1        0.0727
     28  H         15.7120   -2.8320   14.1640 H       1  UNL1        0.0265
     29  H         14.1430   -2.1500   14.5100 H       1  UNL1        0.0265
     30  H         14.9580   -3.2670   15.6640 H       1  UNL1        0.0265
     31  H         14.8720    0.4210   14.6330 H       1  UNL1        0.0265
     32  H         16.2700   -0.2310   13.7860 H       1  UNL1        0.0265
     33  H         16.4540    0.7540   15.2090 H       1  UNL1        0.0265
@<TRIPOS>BOND
     1     1     6   ar
     2     1     2   ar
     3     2     3   ar
     4     2    10    1
     5     3     4   ar
     6     3    21    1
     7     4     7    1
     8     4     5   ar
     9     5     6   ar
    10     6    22    1
    11     7     8    2
    12     7     9    1
    13     9    23    1
    14    10    11   ar
    15    10    15   ar
    16    11    24    1
    17    11    12   ar
    18    12    25    1
    19    12    13   ar
    20    13    14   ar
    21    13    17    1
    22    14    15   ar
    23    14    16    1
    24    15    26    1
    25    17    18    1
    26    18    20    1
    27    18    27    1
    28    18    19    1
    29    19    28    1
    30    19    29    1
    31    19    30    1
    32    20    33    1
    33    20    31    1
    34    20    32    1
