@<TRIPOS>MOLECULE
./DFT_K001__PAC_aligned.pdb
 23 24 0 0 0
SMALL
GASTEIGER

@<TRIPOS>ATOM
      1  N         19.7850    1.8810   21.0540 N.ar    1  UNL1       -0.2353
      2  C         20.3660    1.2780   20.0200 C.ar    1  UNL1        0.0777
      3  C         21.7950    1.2520   19.9170 C.ar    1  UNL1       -0.0031
      4  CA        22.4760    2.0650   20.8530 C.ar    1  UNL1        0.1511
      5  N         21.8080    2.7280   21.7720 N.ar    1  UNL1       -0.2288
      6  C         20.4930    2.6200   21.8810 C.ar    1  UNL1        0.1175
      7  C         23.9680    2.3940   20.6370 C.2     1  UNL1        0.3554
      8  O         24.6990    1.8640   19.7860 O.2     1  UNL1       -0.2434
      9  OXT       24.5450    3.3170   21.5090 O.3     1  UNL1       -0.4761
     10  C         19.4340    0.8520   18.9660 C.ar    1  UNL1        0.0371
     11  C         19.6160   -0.3550   18.3420 C.ar    1  UNL1       -0.0497
     12  C         19.0110   -0.6660   17.1410 C.ar    1  UNL1       -0.0596
     13  C         18.1030    0.2620   16.5880 C.ar    1  UNL1       -0.0406
     14  C         17.7350    1.4550   17.2250 C.ar    1  UNL1        0.0767
     15  C         18.4860    1.7920   18.4050 C.ar    1  UNL1        0.1507
     16  F         18.3790    3.0150   19.0110 F       1  UNL1       -0.2033
     17 CL         16.5830    2.4690   16.3740 Cl      1  UNL1       -0.0806
     18  H         22.3100    0.8320   19.0580 H       1  UNL1        0.0662
     19  H         19.9680    3.1690   22.6600 H       1  UNL1        0.1047
     20  HXT       25.4760    3.0350   21.5140 H       1  UNL1        0.2955
     21  H         20.4620   -0.9680   18.6390 H       1  UNL1        0.0625
     22  H         19.2050   -1.6120   16.6440 H       1  UNL1        0.0618
     23  H         17.6470    0.1300   15.6110 H       1  UNL1        0.0633
@<TRIPOS>BOND
     1     1     2   ar
     2     1     6   ar
     3     2    10    1
     4     2     3   ar
     5     3    18    1
     6     3     4   ar
     7     4     7    1
     8     4     5   ar
     9     5     6   ar
    10     6    19    1
    11     7     8    2
    12     7     9    1
    13     9    20    1
    14    10    11   ar
    15    10    15   ar
    16    11    12   ar
    17    11    21    1
    18    12    13   ar
    19    12    22    1
    20    13    23    1
    21    13    14   ar
    22    14    17    1
    23    14    15   ar
    24    15    16    1
