@<TRIPOS>MOLECULE
./DFT_K008__PAC_aligned.pdb
 23 24 0 0 0
SMALL
GASTEIGER

@<TRIPOS>ATOM
      1  N         19.7250    1.9060   21.0630 N.ar    1  UNL1       -0.2354
      2  C         20.3810    1.2010   20.0190 C.ar    1  UNL1        0.0750
      3  C         21.8000    1.2760   19.8750 C.ar    1  UNL1       -0.0032
      4  CA        22.4770    2.0690   20.8310 C.ar    1  UNL1        0.1511
      5  N         21.8470    2.7200   21.8560 N.ar    1  UNL1       -0.2288
      6  C         20.4920    2.6530   21.8530 C.ar    1  UNL1        0.1175
      7  C         23.9840    2.1210   20.7780 C.2     1  UNL1        0.3554
      8  O         24.5610    1.6090   19.8580 O.2     1  UNL1       -0.2434
      9  OXT       24.6350    2.7120   21.7780 O.3     1  UNL1       -0.4761
     10  C         19.5260    0.3340   19.1730 C.ar    1  UNL1        0.0019
     11  C         19.8770    0.0080   17.8020 C.ar    1  UNL1       -0.0511
     12  C         19.0080   -0.7320   17.0030 C.ar    1  UNL1       -0.0413
     13  C         17.9100   -1.3900   17.5570 C.ar    1  UNL1        0.0593
     14  C         17.5430   -1.1400   18.8990 C.ar    1  UNL1        0.0599
     15  C         18.2560   -0.2160   19.6420 C.ar    1  UNL1       -0.0328
     16 CL         16.0780   -1.6430   19.6300 Cl      1  UNL1       -0.0820
     17 CL         17.0080   -2.3460   16.4040 Cl      1  UNL1       -0.0820
     18  H         22.3410    0.7760   19.0760 H       1  UNL1        0.0662
     19  H         19.9700    3.2470   22.5990 H       1  UNL1        0.1047
     20  HXT       25.5610    2.4900   21.5820 H       1  UNL1        0.2955
     21  H         20.8280    0.3460   17.4000 H       1  UNL1        0.0625
     22  H         19.2320   -0.9530   15.9630 H       1  UNL1        0.0633
     23  H         17.9050    0.0140   20.6440 H       1  UNL1        0.0639
@<TRIPOS>BOND
     1     1     2   ar
     2     1     6   ar
     3     2    10    1
     4     2     3   ar
     5     3    18    1
     6     3     4   ar
     7     4     7    1
     8     4     5   ar
     9     5     6   ar
    10     6    19    1
    11     7     8    2
    12     7     9    1
    13     9    20    1
    14    10    11   ar
    15    10    15   ar
    16    11    12   ar
    17    11    21    1
    18    12    22    1
    19    12    13   ar
    20    13    17    1
    21    13    14   ar
    22    14    16    1
    23    14    15   ar
    24    15    23    1
