@<TRIPOS>MOLECULE
DFT_K065_.xyz
 23 24 0 0 0
SMALL
GASTEIGER

@<TRIPOS>ATOM
      1 N           0.0566    1.6537    0.4860 N.ar    1  UNL1       -0.4809
      2 C          -0.0208    0.3826    0.0761 C.ar    1  UNL1        0.3294
      3 C          -1.2614   -0.1731   -0.2516 C.ar    1  UNL1       -0.2483
      4 CA         -2.3761    0.6456   -0.1479 C.ar    1  UNL1        0.4278
      5 N          -2.2952    1.9153    0.2513 N.ar    1  UNL1       -0.5588
      6 C          -1.0765    2.3470    0.5517 C.ar    1  UNL1        0.4906
      7 C          -3.7607    0.1464   -0.4768 C.2     1  UNL1        0.4722
      8 O          -4.7628    0.7983   -0.4066 O.2     1  UNL1       -0.4430
      9 OXT        -3.7427   -1.1515   -0.8690 O.3     1  UNL1       -0.5330
     10 C           1.2467   -0.3858    0.0043 C.ar    1  UNL1        0.0458
     11 C           2.3803    0.1090    0.6542 C.ar    1  UNL1       -0.0090
     12 C           3.5642   -0.6061    0.6005 C.ar    1  UNL1        0.0199
     13 C           3.6633   -1.8056   -0.0926 C.ar    1  UNL1       -0.0022
     14 C           2.5310   -2.2777   -0.7405 C.ar    1  UNL1        0.0275
     15 C           1.3290   -1.5893   -0.7004 C.ar    1  UNL1       -0.0884
     16 CL          2.6286   -3.7781   -1.6338 Cl      1  UNL1       -0.0736
     17 CL          4.9774    0.0093    1.4252 Cl      1  UNL1       -0.0742
     18 H          -1.3698   -1.1993   -0.5593 H       1  UNL1        0.1081
     19 H          -0.9943    3.3749    0.8843 H       1  UNL1        0.0322
     20 HXT        -4.6597   -1.3966   -1.0594 H       1  UNL1        0.4185
     21 H           2.3214    1.0431    1.1892 H       1  UNL1        0.0716
     22 H           4.5926   -2.3520   -0.1291 H       1  UNL1        0.1069
     23 H           0.4806   -1.9883   -1.2335 H       1  UNL1        0.1247
@<TRIPOS>BOND
     1     1     6   ar
     2     2     1   ar
     3     3     4   ar
     4     3     2   ar
     5     4     5   ar
     6     5     6   ar
     7     6    19    1
     8     7     8    2
     9     7     4    1
    10     9     7    1
    11    10     2    1
    12    10    11   ar
    13    11    21    1
    14    12    11   ar
    15    12    17    1
    16    13    12   ar
    17    14    15   ar
    18    14    13   ar
    19    15    10   ar
    20    16    14    1
    21    18     3    1
    22    20     9    1
    23    22    13    1
    24    23    15    1
