@<TRIPOS>MOLECULE
./DFT_K041__PAC_aligned.pdb
 26 27 0 0 0
SMALL
GASTEIGER

@<TRIPOS>ATOM
      1  N         19.7430    1.9650   20.9850 N.ar    1  UNL1       -0.2354
      2  C         20.4020    1.1650   20.0730 C.ar    1  UNL1        0.0750
      3  C         21.7500    1.3120   19.9360 C.ar    1  UNL1       -0.0032
      4  CA        22.5080    2.0890   20.7810 C.ar    1  UNL1        0.1511
      5  N         21.8350    2.6880   21.8440 N.ar    1  UNL1       -0.2288
      6  C         20.4850    2.6050   21.8780 C.ar    1  UNL1        0.1175
      7  C         24.0040    2.3090   20.7800 C.2     1  UNL1        0.3554
      8  O         24.5400    3.2520   21.2530 O.2     1  UNL1       -0.2434
      9  OXT       24.7510    1.3060   20.1770 O.3     1  UNL1       -0.4761
     10  C         19.6260    0.3220   19.1400 C.ar    1  UNL1        0.0019
     11  C         20.0550   -0.0240   17.8060 C.ar    1  UNL1       -0.0519
     12  C         19.3070   -0.8130   16.9340 C.ar    1  UNL1       -0.0481
     13  C         17.9780   -1.1910   17.3220 C.ar    1  UNL1        0.0731
     14  C         17.5330   -1.0420   18.6840 C.ar    1  UNL1        0.0532
     15  C         18.3550   -0.3270   19.5610 C.ar    1  UNL1       -0.0337
     16 CL         16.0490   -1.7850   19.3020 Cl      1  UNL1       -0.0830
     17  C         17.0440   -1.8860   16.3970 C.3     1  UNL1        0.4188
     18  F         15.8770   -1.2450   16.2370 F       1  UNL1       -0.1658
     19  F         16.6890   -3.1070   16.8680 F       1  UNL1       -0.1658
     20  F         17.5640   -2.1150   15.1720 F       1  UNL1       -0.1658
     21  H         22.2240    0.6850   19.1850 H       1  UNL1        0.0662
     22  H         20.0440    3.1610   22.7020 H       1  UNL1        0.1047
     23  HXT       25.6020    1.7490   20.0100 H       1  UNL1        0.2955
     24  H         20.8290    0.5840   17.3470 H       1  UNL1        0.0624
     25  H         19.6150   -0.7740   15.8930 H       1  UNL1        0.0624
     26  H         17.9730   -0.0110   20.5270 H       1  UNL1        0.0639
@<TRIPOS>BOND
     1     1     6   ar
     2     1     2   ar
     3     2     3   ar
     4     2    10    1
     5     3     4   ar
     6     3    21    1
     7     4     7    1
     8     4     5   ar
     9     5     6   ar
    10     6    22    1
    11     7     8    2
    12     7     9    1
    13     9    23    1
    14    10    11   ar
    15    10    15   ar
    16    11    24    1
    17    11    12   ar
    18    12    25    1
    19    12    13   ar
    20    13    14   ar
    21    13    17    1
    22    14    15   ar
    23    14    16    1
    24    15    26    1
    25    17    20    1
    26    17    19    1
    27    17    18    1
