@<TRIPOS>MOLECULE
DFT_K009_.xyz
 26 27 0 0 0
SMALL
GASTEIGER

@<TRIPOS>ATOM
      1 N           0.0558    1.6539    0.4850 N.ar    1  UNL1       -0.4474
      2 C          -0.0177    0.3807    0.0758 C.ar    1  UNL1        0.2758
      3 C          -1.2619   -0.1724   -0.2503 C.ar    1  UNL1       -0.1630
      4 CA         -2.3755    0.6463   -0.1487 C.ar    1  UNL1        0.3676
      5 N          -2.2968    1.9167    0.2516 N.ar    1  UNL1       -0.5366
      6 C          -1.0773    2.3459    0.5524 C.ar    1  UNL1        0.4532
      7 C          -3.7577    0.1498   -0.4877 C.2     1  UNL1        0.4847
      8 O          -4.7556    0.8122   -0.4603 O.2     1  UNL1       -0.4476
      9 OXT        -3.7481   -1.1610   -0.8388 O.3     1  UNL1       -0.5291
     10 C           1.2468   -0.3852   -0.0028 C.ar    1  UNL1        0.0067
     11 C           1.3215   -1.6470   -0.5975 C.ar    1  UNL1       -0.2222
     12 C           2.5260   -2.3296   -0.6520 C.ar    1  UNL1       -0.1342
     13 C           3.7035   -1.8002   -0.1213 C.ar    1  UNL1       -0.0641
     14 C           3.6063   -0.5354    0.4677 C.ar    1  UNL1        0.0048
     15 C           2.4158    0.1655    0.5290 C.ar    1  UNL1       -0.0076
     16 CL          5.0382    0.2083    1.1608 Cl      1  UNL1       -0.0910
     17 C           4.9959   -2.5588   -0.1904 C.3     1  UNL1       -0.0689
     18 H          -1.3719   -1.1968   -0.5624 H       1  UNL1        0.0730
     19 H          -0.9948    3.3734    0.8875 H       1  UNL1        0.0361
     20 HXT        -4.6648   -1.3981   -1.0403 H       1  UNL1        0.4122
     21 H           0.4468   -2.1036   -1.0368 H       1  UNL1        0.1651
     22 H           2.5619   -3.3034   -1.1223 H       1  UNL1        0.1251
     23 H           2.3796    1.1417    0.9859 H       1  UNL1        0.0508
     24 H           5.7552   -1.9955   -0.7354 H       1  UNL1        0.0430
     25 H           5.3992   -2.7422    0.8068 H       1  UNL1        0.0441
     26 H           4.8545   -3.5169   -0.6869 H       1  UNL1        0.0395
@<TRIPOS>BOND
     1     1     6   ar
     2     2     1   ar
     3     3     4   ar
     4     3     2   ar
     5     4     5   ar
     6     5     6   ar
     7     6    19    1
     8     7     8    2
     9     7     4    1
    10     9     7    1
    11    10     2    1
    12    10    15   ar
    13    11    10   ar
    14    12    11   ar
    15    12    13   ar
    16    13    14   ar
    17    14    15   ar
    18    14    16    1
    19    15    23    1
    20    17    13    1
    21    17    25    1
    22    18     3    1
    23    20     9    1
    24    21    11    1
    25    22    12    1
    26    24    17    1
    27    26    17    1
