@<TRIPOS>MOLECULE
./DFT_K111__PAC_aligned.pdb
 22 23 0 0 0
SMALL
GASTEIGER

@<TRIPOS>ATOM
      1  N         19.7070    1.8650   21.0530 N.ar    1  UNL1       -0.2353
      2  C         20.3680    1.2580   20.0090 C.ar    1  UNL1        0.0764
      3  C         21.7870    1.2630   19.9280 C.ar    1  UNL1       -0.0032
      4  CA        22.4970    2.0720   20.8290 C.ar    1  UNL1        0.1511
      5  N         21.8500    2.7410   21.8350 N.ar    1  UNL1       -0.2288
      6  C         20.5140    2.6250   21.8430 C.ar    1  UNL1        0.1175
      7  C         24.0300    1.9300   20.8250 C.2     1  UNL1        0.3554
      8  OXT       24.6160    1.5060   19.8240 O.2     1  UNL1       -0.2434
      9  O         24.7300    2.0610   22.0100 O.3     1  UNL1       -0.4761
     10  C         19.5600    0.2940   19.2060 C.ar    1  UNL1        0.0186
     11  C         18.1920    0.4610   18.9470 C.ar    1  UNL1       -0.0497
     12  C         17.5620   -0.5870   18.3170 C.ar    1  UNL1       -0.0430
     13  C         18.1540   -1.7420   17.9190 C.ar    1  UNL1        0.0276
     14  N         19.5010   -1.9220   18.1170 N.ar    1  UNL1       -0.2626
     15  C         20.1610   -0.9790   18.7790 C.ar    1  UNL1        0.0367
     16  H         22.2860    0.7400   19.1180 H       1  UNL1        0.0662
     17  H         20.0210    3.1340   22.6700 H       1  UNL1        0.1047
     18  H         25.6060    1.7120   21.7680 H       1  UNL1        0.2955
     19  H         17.6770    1.3570   19.2830 H       1  UNL1        0.0625
     20  H         16.5070   -0.4970   18.0740 H       1  UNL1        0.0633
     21  H         17.6210   -2.5660   17.4480 H       1  UNL1        0.0829
     22  H         21.2180   -1.2220   18.8790 H       1  UNL1        0.0836
@<TRIPOS>BOND
     1     1     6   ar
     2     1     2   ar
     3     2     3   ar
     4     2    10    1
     5     3     4   ar
     6     3    16    1
     7     4     7    1
     8     4     5   ar
     9     5     6   ar
    10     6    17    1
    11     7     9    1
    12     7     8    2
    13     9    18    1
    14    10    15   ar
    15    10    11   ar
    16    11    12   ar
    17    11    19    1
    18    12    13   ar
    19    12    20    1
    20    13    14   ar
    21    13    21    1
    22    14    15   ar
    23    15    22    1
