@<TRIPOS>MOLECULE
./DFT_K092__PAC_aligned.pdb
 43 45 0 0 0
SMALL
GASTEIGER

@<TRIPOS>ATOM
      1  O         23.7050    1.5640   18.2120 O.3     1  UNL1       -0.4892
      2  C         22.4240    1.3210   18.7560 C.3     1  UNL1        0.1023
      3  C         22.1220    2.4460   19.7150 C.3     1  UNL1        0.0333
      4  N         20.8500    2.1750   20.4500 N.3     1  UNL1       -0.2948
      5  C         19.6270    2.6180   19.7010 C.3     1  UNL1        0.0225
      6  C         18.2910    2.1640   20.2550 C.3     1  UNL1        0.0604
      7  O         18.4630    1.9050   21.7150 O.3     1  UNL1       -0.3772
      8  C         19.2940    2.8070   22.4560 C.3     1  UNL1        0.0604
      9  C         20.7640    2.7260   21.8530 C.3     1  UNL1        0.0225
     10  C         24.9200    1.2990   18.9300 C.ar    1  UNL1        0.1388
     11  C         24.9910    0.9230   20.2890 C.ar    1  UNL1       -0.0181
     12  C         26.2230    0.7140   20.9090 C.ar    1  UNL1       -0.0526
     13  C         27.4580    0.8740   20.1340 C.ar    1  UNL1       -0.0152
     14  C         28.7840    0.5370   20.7680 C.3     1  UNL1        0.1271
     15  N         29.8920    1.0470   20.2010 N.2     1  UNL1       -0.2575
     16  C         31.0910    0.7440   20.7890 C.2     1  UNL1        0.1123
     17  N         31.2500    0.1380   21.9300 N.2     1  UNL1       -0.2333
     18  CA        30.1790   -0.2900   22.5690 C.2     1  UNL1        0.1329
     19  C         28.9140    0.0040   22.0580 C.3     1  UNL1        0.0513
     20  C         30.4070   -0.9890   23.8870 C.2     1  UNL1        0.3516
     21  OXT       29.6330   -0.8580   24.8200 O.2     1  UNL1       -0.2438
     22  O         31.5550   -1.7170   23.9910 O.3     1  UNL1       -0.4763
     23  C         27.3900    1.2990   18.8390 C.ar    1  UNL1       -0.0342
     24  C         26.1320    1.5680   18.2420 C.ar    1  UNL1        0.0829
     25 CL         26.0760    2.4030   16.6570 Cl      1  UNL1       -0.0797
     26  H         21.7130    1.5260   17.9460 H       1  UNL1        0.0709
     27  H         22.2890    0.2610   19.0030 H       1  UNL1        0.0709
     28  H         22.9040    2.4880   20.4840 H       1  UNL1        0.0460
     29  H         22.1200    3.4160   19.2000 H       1  UNL1        0.0460
     30  H         19.6980    2.2890   18.6570 H       1  UNL1        0.0449
     31  H         19.6690    3.7120   19.7750 H       1  UNL1        0.0449
     32  H         17.9980    1.2500   19.7240 H       1  UNL1        0.0572
     33  H         17.4240    2.8190   20.1020 H       1  UNL1        0.0572
     34  H         19.2990    2.5630   23.5250 H       1  UNL1        0.0572
     35  H         18.9380    3.8410   22.3720 H       1  UNL1        0.0572
     36  H         21.4350    2.2530   22.5810 H       1  UNL1        0.0449
     37  H         21.0900    3.7730   21.8560 H       1  UNL1        0.0449
     38  H         24.0410    0.8140   20.8030 H       1  UNL1        0.0655
     39  H         26.2590    0.3830   21.9430 H       1  UNL1        0.0622
     40  H         31.8800    1.4320   20.4940 H       1  UNL1        0.1043
     41  H         28.0770   -0.1420   22.7330 H       1  UNL1        0.0401
     42  H         31.5180   -1.9420   24.9370 H       1  UNL1        0.2954
     43  H         28.2880    1.6330   18.3260 H       1  UNL1        0.0637
@<TRIPOS>BOND
     1     1     2    1
     2     1    10    1
     3     2    26    1
     4     2     3    1
     5     2    27    1
     6     3    29    1
     7     3    28    1
     8     3     4    1
     9     4     5    1
    10     4     9    1
    11     5    30    1
    12     5    31    1
    13     5     6    1
    14     6    33    1
    15     6    32    1
    16     6     7    1
    17     7     8    1
    18     8     9    1
    19     8    35    1
    20     8    34    1
    21     9    37    1
    22     9    36    1
    23    10    24   ar
    24    10    11   ar
    25    11    38    1
    26    11    12   ar
    27    12    13   ar
    28    12    39    1
    29    13    23   ar
    30    13    14    1
    31    14    15    1
    32    14    19    1
    33    15    16    2
    34    16    40    1
    35    16    17    1
    36    17    18    2
    37    18    19    1
    38    18    20    1
    39    19    41    1
    40    20    22    1
    41    20    21    2
    42    22    42    1
    43    23    43    1
    44    23    24   ar
    45    24    25    1
