@<TRIPOS>MOLECULE
DFT_K005_.xyz
 23 24 0 0 0
SMALL
GASTEIGER

@<TRIPOS>ATOM
      1 N           0.0559    1.6537    0.4853 N.ar    1  UNL1       -0.4787
      2 C          -0.0187    0.3813    0.0757 C.ar    1  UNL1        0.3173
      3 C          -1.2616   -0.1726   -0.2504 C.ar    1  UNL1       -0.2199
      4 CA         -2.3756    0.6462   -0.1486 C.ar    1  UNL1        0.4121
      5 N          -2.2963    1.9162    0.2515 N.ar    1  UNL1       -0.5550
      6 C          -1.0771    2.3463    0.5522 C.ar    1  UNL1        0.4799
      7 C          -3.7588    0.1491   -0.4842 C.2     1  UNL1        0.4700
      8 O          -4.7590    0.8068   -0.4374 O.2     1  UNL1       -0.4436
      9 OXT        -3.7455   -1.1556   -0.8563 O.3     1  UNL1       -0.5298
     10 C           1.2475   -0.3866    0.0001 C.ar    1  UNL1        0.0148
     11 C           1.3268   -1.6215   -0.6504 C.ar    1  UNL1       -0.1955
     12 C           2.5286   -2.3131   -0.7018 C.ar    1  UNL1       -0.1175
     13 C           3.6704   -1.7931   -0.1062 C.ar    1  UNL1       -0.0520
     14 C           3.5872   -0.5644    0.5362 C.ar    1  UNL1        0.0149
     15 C           2.3986    0.1421    0.5930 C.ar    1  UNL1       -0.0392
     16 CL          5.0193    0.1058    1.2898 Cl      1  UNL1       -0.0885
     17 H          -1.3711   -1.1980   -0.5597 H       1  UNL1        0.0905
     18 H          -0.9947    3.3738    0.8868 H       1  UNL1        0.0332
     19 HXT        -4.6625   -1.3955   -1.0532 H       1  UNL1        0.4152
     20 H           0.4597   -2.0440   -1.1360 H       1  UNL1        0.1548
     21 H           2.5808   -3.2644   -1.2129 H       1  UNL1        0.1286
     22 H           4.6092   -2.3257   -0.1402 H       1  UNL1        0.1133
     23 H           2.3477    1.0985    1.0885 H       1  UNL1        0.0562
@<TRIPOS>BOND
     1     1     6   ar
     2     2     1   ar
     3     3     4   ar
     4     3     2   ar
     5     4     5   ar
     6     5     6   ar
     7     6    18    1
     8     7     8    2
     9     7     4    1
    10     9     7    1
    11    10     2    1
    12    10    15   ar
    13    11    10   ar
    14    12    11   ar
    15    12    13   ar
    16    13    14   ar
    17    14    15   ar
    18    14    16    1
    19    15    23    1
    20    17     3    1
    21    19     9    1
    22    20    11    1
    23    21    12    1
    24    22    13    1
