@<TRIPOS>MOLECULE
DFT_K051_.xyz
 26 27 0 0 0
SMALL
GASTEIGER

@<TRIPOS>ATOM
      1 N           0.0493    1.6592    0.4913 N.ar    1  UNL1       -0.5446
      2 C          -0.0261    0.3956    0.0533 C.ar    1  UNL1        0.3429
      3 C          -1.2661   -0.2097   -0.2397 C.ar    1  UNL1        0.0672
      4 CA         -2.3693    0.6495   -0.1477 C.ar    1  UNL1        0.3690
      5 N          -2.2850    1.9236    0.2353 N.ar    1  UNL1       -0.5407
      6 C          -1.0761    2.3527    0.5730 C.ar    1  UNL1        0.4798
      7 C          -3.7759    0.1815   -0.4353 C.2     1  UNL1        0.4494
      8 O          -4.2589   -0.8410   -0.0182 O.2     1  UNL1       -0.4472
      9 OXT        -4.4459    1.0557   -1.2019 O.3     1  UNL1       -0.5069
     10 C          -1.4123   -1.6651   -0.6004 C.3     1  UNL1       -0.1934
     11 C           1.2859   -0.2941   -0.0660 C.ar    1  UNL1        0.0185
     12 C           2.2539   -0.0972    0.9226 C.ar    1  UNL1       -0.1650
     13 C           3.4958   -0.6976    0.8237 C.ar    1  UNL1       -0.0412
     14 C           3.8109   -1.4891   -0.2766 C.ar    1  UNL1        0.0122
     15 C           2.8626   -1.6719   -1.2818 C.ar    1  UNL1        0.0237
     16 C           1.6098   -1.0815   -1.1687 C.ar    1  UNL1       -0.0092
     17 CL          3.2096   -2.6267   -2.6961 Cl      1  UNL1       -0.0699
     18 CL          5.3850   -2.2208   -0.3669 Cl      1  UNL1       -0.0645
     19 H          -1.0008    3.3705    0.9373 H       1  UNL1        0.0346
     20 HXT        -5.3442    0.7072   -1.3076 H       1  UNL1        0.4207
     21 H          -2.3241   -2.0712   -0.1744 H       1  UNL1        0.0807
     22 H          -1.4678   -1.8064   -1.6826 H       1  UNL1        0.0865
     23 H          -0.5672   -2.2441   -0.2385 H       1  UNL1        0.0530
     24 H           2.0256    0.5360    1.7668 H       1  UNL1        0.1355
     25 H           4.2381   -0.5558    1.5954 H       1  UNL1        0.1113
     26 H           0.9048   -1.2252   -1.9726 H       1  UNL1        0.0506
@<TRIPOS>BOND
     1     2    11    1
     2     2     1   ar
     3     2     3   ar
     4     3    10    1
     5     4     3   ar
     6     5     4   ar
     7     5     6   ar
     8     6    19    1
     9     6     1   ar
    10     7     4    1
    11     7     8    2
    12     9    20    1
    13     9     7    1
    14    10    23    1
    15    10    21    1
    16    11    12   ar
    17    12    24    1
    18    13    12   ar
    19    13    25    1
    20    14    18    1
    21    14    13   ar
    22    15    16   ar
    23    15    14   ar
    24    16    11   ar
    25    17    15    1
    26    22    10    1
    27    26    16    1
