@<TRIPOS>MOLECULE
DFT_K080_.xyz
 23 24 0 0 0
SMALL
GASTEIGER

@<TRIPOS>ATOM
      1 N           0.0563    1.6540    0.4855 N.ar    1  UNL1       -0.5226
      2 C          -0.0172    0.3807    0.0755 C.ar    1  UNL1        0.3756
      3 C          -1.2621   -0.1719   -0.2504 C.ar    1  UNL1       -0.2660
      4 CA         -2.3760    0.6460   -0.1484 C.ar    1  UNL1        0.4294
      5 N          -2.2970    1.9169    0.2512 N.ar    1  UNL1       -0.5767
      6 C          -1.0774    2.3454    0.5520 C.ar    1  UNL1        0.5163
      7 C          -3.7588    0.1472   -0.4804 C.2     1  UNL1        0.4731
      8 O          -4.7635    0.7963   -0.4113 O.2     1  UNL1       -0.4477
      9 OXT        -3.7422   -1.1508   -0.8770 O.3     1  UNL1       -0.5294
     10 C           1.2457   -0.3883   -0.0012 C.ar    1  UNL1        0.0296
     11 C           2.3931    0.1000    0.6335 C.ar    1  UNL1       -0.0221
     12 C           3.5843   -0.6076    0.5808 C.ar    1  UNL1       -0.1224
     13 C           3.6547   -1.8109   -0.1134 C.ar    1  UNL1       -0.1133
     14 C           2.5239   -2.3015   -0.7562 C.ar    1  UNL1       -0.1074
     15 C           1.3293   -1.5980   -0.6992 C.ar    1  UNL1       -0.1598
     16 H          -1.3704   -1.1983   -0.5572 H       1  UNL1        0.0982
     17 H          -0.9951    3.3736    0.8854 H       1  UNL1        0.0220
     18 HXT        -4.6601   -1.3915   -1.0674 H       1  UNL1        0.4128
     19 H           2.3317    1.0380    1.1643 H       1  UNL1        0.0711
     20 H           4.4607   -0.2195    1.0821 H       1  UNL1        0.1197
     21 H           4.5852   -2.3608   -0.1564 H       1  UNL1        0.1223
     22 H           2.5728   -3.2312   -1.3068 H       1  UNL1        0.1194
     23 H           0.4675   -1.9893   -1.2210 H       1  UNL1        0.1373
@<TRIPOS>BOND
     1     1     6   ar
     2     2     1   ar
     3     3     4   ar
     4     3     2   ar
     5     4     5   ar
     6     5     6   ar
     7     6    17    1
     8     7     8    2
     9     7     4    1
    10     9     7    1
    11    10     2    1
    12    10    11   ar
    13    11    19    1
    14    12    11   ar
    15    12    20    1
    16    13    12   ar
    17    14    15   ar
    18    14    13   ar
    19    15    10   ar
    20    16     3    1
    21    18     9    1
    22    21    13    1
    23    22    14    1
    24    23    15    1
