@<TRIPOS>MOLECULE
./DFT_K075__PAC_aligned.pdb
 30 31 0 0 0
SMALL
GASTEIGER

@<TRIPOS>ATOM
      1  N         19.7330    1.8970   21.0360 N.ar    1  UNL1       -0.2350
      2  C         20.3950    1.2320   20.0340 C.ar    1  UNL1        0.0804
      3  C         21.7700    1.2980   19.8920 C.ar    1  UNL1        0.0364
      4  CA        22.4630    2.0260   20.8760 C.ar    1  UNL1        0.1565
      5  N         21.8200    2.7770   21.7910 N.ar    1  UNL1       -0.2285
      6  C         20.5410    2.5950   21.8680 C.ar    1  UNL1        0.1175
      7  C         24.0640    1.8510   21.0200 C.2     1  UNL1        0.3558
      8  O         24.7690    1.8510   22.0170 O.2     1  UNL1       -0.2434
      9  OXT       24.7920    2.3470   19.9870 O.3     1  UNL1       -0.4761
     10  C         22.4990    0.2300   18.9160 C.3     1  UNL1        0.0766
     11  O         23.3200   -0.6540   19.7030 O.3     1  UNL1       -0.3783
     12  C         24.0040   -1.7270   18.9480 C.3     1  UNL1        0.0369
     13  C         19.4710    0.4640   19.2180 C.ar    1  UNL1        0.0023
     14  C         19.3930    0.6960   17.7900 C.ar    1  UNL1       -0.0511
     15  C         18.4010   -0.0850   17.0790 C.ar    1  UNL1       -0.0413
     16  C         17.6410   -1.0140   17.6790 C.ar    1  UNL1        0.0593
     17  C         17.6660   -1.2010   19.0670 C.ar    1  UNL1        0.0599
     18  C         18.5570   -0.5190   19.8170 C.ar    1  UNL1       -0.0328
     19 CL         16.5890   -2.3880   19.7580 Cl      1  UNL1       -0.0820
     20 CL         16.3400   -1.8170   16.7860 Cl      1  UNL1       -0.0820
     21  H         20.1130    2.9880   22.7880 H       1  UNL1        0.1047
     22  HXT       25.7070    2.2760   20.3080 H       1  UNL1        0.2955
     23  H         23.1040    0.8660   18.2580 H       1  UNL1        0.0611
     24  H         21.7280   -0.3970   18.4520 H       1  UNL1        0.0611
     25  H         23.3350   -2.2400   18.2470 H       1  UNL1        0.0524
     26  H         24.7610   -1.1810   18.3720 H       1  UNL1        0.0524
     27  H         24.4810   -2.5450   19.5020 H       1  UNL1        0.0524
     28  H         20.0620    1.3860   17.2850 H       1  UNL1        0.0625
     29  H         18.3060   -0.0510   15.9980 H       1  UNL1        0.0633
     30  H         18.6680   -0.7070   20.8810 H       1  UNL1        0.0639
@<TRIPOS>BOND
     1     1     6   ar
     2     1     2   ar
     3     2    13    1
     4     2     3   ar
     5     3     4   ar
     6     3    10    1
     7     4     5   ar
     8     4     7    1
     9     5     6   ar
    10     6    21    1
    11     7     8    2
    12     7     9    1
    13     9    22    1
    14    10    24    1
    15    10    11    1
    16    10    23    1
    17    11    12    1
    18    12    27    1
    19    12    25    1
    20    12    26    1
    21    13    18   ar
    22    13    14   ar
    23    14    15   ar
    24    14    28    1
    25    15    16   ar
    26    15    29    1
    27    16    17   ar
    28    16    20    1
    29    17    19    1
    30    17    18   ar
    31    18    30    1
