@<TRIPOS>MOLECULE
./DFT_K006__PAC_aligned.pdb
 31 33 0 0 0
SMALL
GASTEIGER

@<TRIPOS>ATOM
      1  N         19.7760    1.8900   21.0090 N.ar    1  UNL1       -0.2354
      2  C         20.3670    1.2310   20.0360 C.ar    1  UNL1        0.0750
      3  C         21.7510    1.2920   19.9450 C.ar    1  UNL1       -0.0032
      4  CA        22.4610    2.0820   20.8440 C.ar    1  UNL1        0.1511
      5  N         21.8200    2.7190   21.8160 N.ar    1  UNL1       -0.2288
      6  C         20.5470    2.6090   21.8480 C.ar    1  UNL1        0.1175
      7  C         24.0260    2.2330   20.8160 C.2     1  UNL1        0.3554
      8  O         24.7340    2.7740   21.6920 O.2     1  UNL1       -0.2434
      9  OXT       24.6560    1.7720   19.7510 O.3     1  UNL1       -0.4761
     10  C         19.4220    0.5150   19.1480 C.ar    1  UNL1        0.0021
     11  C         19.8160   -0.5290   18.3030 C.ar    1  UNL1       -0.0490
     12  C         18.9470   -1.0290   17.3440 C.ar    1  UNL1       -0.0178
     13  C         17.6320   -0.5590   17.3110 C.ar    1  UNL1        0.1392
     14  C         17.1160    0.3690   18.2110 C.ar    1  UNL1        0.0832
     15  C         18.0400    0.9640   19.1030 C.ar    1  UNL1       -0.0306
     16 CL         15.5120    1.0150   18.0480 Cl      1  UNL1       -0.0797
     17  O         16.7170   -1.1380   16.3900 O.3     1  UNL1       -0.4874
     18  C         16.8820   -0.6100   15.0580 C.3     1  UNL1        0.1005
     19  C         16.5030   -1.2920   13.8460 C.3     1  UNL1       -0.0124
     20  C         15.6080   -0.2570   14.3570 C.3     1  UNL1       -0.0124
     21  H         22.3200    0.6690   19.2630 H       1  UNL1        0.0662
     22  H         20.0640    3.0030   22.7390 H       1  UNL1        0.1047
     23  HXT       25.5450    2.1460   19.8870 H       1  UNL1        0.2955
     24  H         20.8350   -0.9000   18.2410 H       1  UNL1        0.0625
     25  H         19.3450   -1.6940   16.5830 H       1  UNL1        0.0655
     26  H         17.7030    1.7720   19.7460 H       1  UNL1        0.0640
     27  H         17.6620    0.1410   14.9460 H       1  UNL1        0.0733
     28  H         16.0770   -2.2920   13.8290 H       1  UNL1        0.0302
     29  H         17.0210   -1.1150   12.9070 H       1  UNL1        0.0302
     30  H         14.6520   -0.6350   14.7120 H       1  UNL1        0.0302
     31  H         15.4840    0.7030   13.8620 H       1  UNL1        0.0302
@<TRIPOS>BOND
     1     1     6   ar
     2     1     2   ar
     3     2    10    1
     4     2     3   ar
     5     3    21    1
     6     3     4   ar
     7     4     5   ar
     8     4     7    1
     9     5     6   ar
    10     6    22    1
    11     7     8    2
    12     7     9    1
    13     9    23    1
    14    10    15   ar
    15    10    11   ar
    16    11    12   ar
    17    11    24    1
    18    12    13   ar
    19    12    25    1
    20    13    17    1
    21    13    14   ar
    22    14    16    1
    23    14    15   ar
    24    15    26    1
    25    17    18    1
    26    18    19    1
    27    18    20    1
    28    18    27    1
    29    19    28    1
    30    19    20    1
    31    19    29    1
    32    20    30    1
    33    20    31    1
