@<TRIPOS>MOLECULE
DFT_K104_.xyz
 35 37 0 0 0
SMALL
GASTEIGER

@<TRIPOS>ATOM
      1 N           4.9044   -2.5237   -0.0536 N.pl3   1  UNL1       -0.0542
      2 C           3.7039   -1.8579   -0.0682 C.ar    1  UNL1        0.0448
      3 C           3.6125   -0.5478    0.4603 C.ar    1  UNL1       -0.1229
      4 C           2.4331    0.1622    0.4962 C.ar    1  UNL1       -0.0594
      5 C           1.2418   -0.3829    0.0072 C.ar    1  UNL1        0.0378
      6 C          -0.0144    0.3783    0.0766 C.ar    1  UNL1        0.3019
      7 N           0.0559    1.6551    0.4849 N.ar    1  UNL1       -0.4979
      8 C          -1.0779    2.3448    0.5514 C.ar    1  UNL1        0.5002
      9 N          -2.2987    1.9183    0.2526 N.ar    1  UNL1       -0.5617
     10 CA         -2.3750    0.6462   -0.1488 C.ar    1  UNL1        0.3638
     11 C          -1.2633   -0.1717   -0.2511 C.ar    1  UNL1       -0.1992
     12 C          -3.7566    0.1479   -0.4845 C.2     1  UNL1        0.4915
     13 O          -4.7599    0.8019   -0.4353 O.2     1  UNL1       -0.4536
     14 OXT        -3.7448   -1.1566   -0.8603 O.3     1  UNL1       -0.5212
     15 C           1.3141   -1.6579   -0.5595 C.ar    1  UNL1       -0.1053
     16 C           2.5000   -2.3641   -0.6179 C.ar    1  UNL1        0.0159
     17 CL          2.4444   -3.8783   -1.5186 Cl      1  UNL1       -0.1155
     18 C           5.0665   -3.9899    0.0531 C.3     1  UNL1        0.0081
     19 C           6.4345   -4.1672    0.7180 C.3     1  UNL1       -0.0248
     20 C           7.2036   -2.9239    0.2664 C.3     1  UNL1       -0.0282
     21 C           6.1367   -1.8374    0.3494 C.3     1  UNL1        0.0243
     22 H           4.4977   -0.0884    0.8699 H       1  UNL1        0.0986
     23 H           2.4149    1.1545    0.9208 H       1  UNL1        0.0754
     24 H          -0.9950    3.3733    0.8843 H       1  UNL1        0.0213
     25 H          -1.3752   -1.1958   -0.5644 H       1  UNL1        0.0799
     26 HXT        -4.6627   -1.3924   -1.0574 H       1  UNL1        0.4056
     27 H           0.4457   -2.1138   -1.0100 H       1  UNL1        0.1282
     28 H           5.0530   -4.4563   -0.9316 H       1  UNL1        0.0506
     29 H           4.2590   -4.4276    0.6382 H       1  UNL1        0.0562
     30 H           6.3318   -4.1674    1.8047 H       1  UNL1        0.0302
     31 H           6.9103   -5.1022    0.4272 H       1  UNL1        0.0251
     32 H           8.0690   -2.6994    0.8876 H       1  UNL1        0.0273
     33 H           7.5461   -3.0401   -0.7633 H       1  UNL1        0.0336
     34 H           6.0674   -1.4587    1.3771 H       1  UNL1        0.0517
     35 H           6.3353   -0.9873   -0.3050 H       1  UNL1        0.0440
@<TRIPOS>BOND
     1     1     2    1
     2     1    18    1
     3     2    16   ar
     4     3     4   ar
     5     3     2   ar
     6     4     5   ar
     7     5     6    1
     8     5    15   ar
     9     6    11   ar
    10     7     8   ar
    11     7     6   ar
    12     8     9   ar
    13     9    10   ar
    14    10    12    1
    15    11    10   ar
    16    11    25    1
    17    12    13    2
    18    12    14    1
    19    14    26    1
    20    15    27    1
    21    16    15   ar
    22    16    17    1
    23    18    28    1
    24    18    29    1
    25    19    30    1
    26    19    31    1
    27    19    18    1
    28    20    21    1
    29    20    19    1
    30    21     1    1
    31    22     3    1
    32    23     4    1
    33    24     8    1
    34    32    20    1
    35    33    20    1
    36    34    21    1
    37    35    21    1
