@<TRIPOS>MOLECULE
./DFT_K014__PAC_aligned.pdb
 26 28 0 0 0
SMALL
GASTEIGER

@<TRIPOS>ATOM
      1  N         19.7630    1.8740   21.0340 N.ar    1  UNL1       -0.2354
      2  C         20.3830    1.2330   20.0340 C.ar    1  UNL1        0.0750
      3  C         21.7710    1.2800   19.9100 C.ar    1  UNL1       -0.0032
      4  CA        22.4620    2.0730   20.8250 C.ar    1  UNL1        0.1511
      5  N         21.8390    2.7080   21.8450 N.ar    1  UNL1       -0.2288
      6  C         20.5050    2.6560   21.8490 C.ar    1  UNL1        0.1175
      7  C         23.9890    2.1830   20.7680 C.2     1  UNL1        0.3554
      8  O         24.5300    3.0990   21.3790 O.2     1  UNL1       -0.2434
      9  OXT       24.5790    1.5220   19.7870 O.3     1  UNL1       -0.4761
     10  C         19.5930    0.4780   19.0050 C.ar    1  UNL1        0.0013
     11  C         18.1920    0.2340   19.2030 C.ar    1  UNL1       -0.0418
     12  C         17.4200   -0.2410   18.1320 C.ar    1  UNL1        0.0207
     13  C         17.9930   -0.5690   16.9320 C.ar    1  UNL1        0.1348
     14  C         19.3760   -0.3750   16.7200 C.ar    1  UNL1       -0.0181
     15  C         20.2090    0.1250   17.7570 C.ar    1  UNL1       -0.0491
     16  O         17.1100   -1.2430   16.0610 O.2     1  UNL1       -0.4629
     17  C         15.9600   -1.2450   16.7480 C.ar    1  UNL1        0.0931
     18  C         16.0220   -0.6150   18.0060 C.ar    1  UNL1       -0.0161
     19  H         22.3360    0.8580   19.0840 H       1  UNL1        0.0662
     20  H         19.9510    3.2910   22.5370 H       1  UNL1        0.1047
     21  HXT       25.2610    2.1640   19.5240 H       1  UNL1        0.2955
     22  H         17.6370    0.4670   20.1060 H       1  UNL1        0.0631
     23  H         19.8850   -0.5340   15.7730 H       1  UNL1        0.0655
     24  H         21.2620    0.2570   17.5250 H       1  UNL1        0.0625
     25  H         15.1450   -1.8600   16.3880 H       1  UNL1        0.1029
     26  H         15.1520   -0.5660   18.6490 H       1  UNL1        0.0655
@<TRIPOS>BOND
     1     1     6   ar
     2     1     2   ar
     3     2    10    1
     4     2     3   ar
     5     3     4   ar
     6     3    19    1
     7     4     5   ar
     8     4     7    1
     9     5     6   ar
    10     6    20    1
    11     7     8    2
    12     7     9    1
    13     9    21    1
    14    10    11   ar
    15    10    15   ar
    16    11    22    1
    17    11    12   ar
    18    12    18   ar
    19    12    13   ar
    20    13    16   ar
    21    13    14   ar
    22    14    15   ar
    23    14    23    1
    24    15    24    1
    25    16    17   ar
    26    17    18   ar
    27    17    25    1
    28    18    26    1
