@<TRIPOS>MOLECULE
./DFT_K089__PAC_aligned.pdb
 23 24 0 0 0
SMALL
GASTEIGER

@<TRIPOS>ATOM
      1  N         19.7790    1.8750   21.0050 N.ar    1  UNL1       -0.2353
      2  C         20.3910    1.2530   20.0590 C.ar    1  UNL1        0.0777
      3  C         21.7500    1.2720   19.9260 C.ar    1  UNL1       -0.0031
      4  CA        22.4870    2.0770   20.8080 C.ar    1  UNL1        0.1511
      5  N         21.8210    2.7050   21.8330 N.ar    1  UNL1       -0.2288
      6  C         20.4940    2.6420   21.8660 C.ar    1  UNL1        0.1175
      7  C         24.0280    2.1930   20.6750 C.2     1  UNL1        0.3554
      8  OXT       24.6960    3.0120   21.2660 O.2     1  UNL1       -0.2434
      9  O         24.6300    1.2540   19.9260 O.3     1  UNL1       -0.4761
     10  C         19.4190    0.3160   19.3700 C.ar    1  UNL1        0.0358
     11  C         18.4730   -0.4380   20.0680 C.ar    1  UNL1       -0.0471
     12  C         17.5840   -1.4080   19.3810 C.ar    1  UNL1       -0.0257
     13  C         17.4410   -1.2510   18.0680 C.ar    1  UNL1        0.1262
     14  C         18.3970   -0.5250   17.3170 C.ar    1  UNL1        0.0094
     15  C         19.4350    0.1920   17.9710 C.ar    1  UNL1        0.1353
     16  F         20.2470    0.9370   17.0950 F       1  UNL1       -0.2047
     17  F         16.7320   -2.0660   17.4160 F       1  UNL1       -0.2054
     18  H         22.2640    0.6600   19.1910 H       1  UNL1        0.0662
     19  H         19.9950    3.0490   22.7430 H       1  UNL1        0.1047
     20  H         25.5410    1.3750   20.2450 H       1  UNL1        0.2955
     21  H         18.5570   -0.4000   21.1500 H       1  UNL1        0.0626
     22  H         16.8720   -2.0110   19.9360 H       1  UNL1        0.0646
     23  H         18.2770   -0.5450   16.2380 H       1  UNL1        0.0675
@<TRIPOS>BOND
     1     1     2   ar
     2     1     6   ar
     3     2     3   ar
     4     2    10    1
     5     3    18    1
     6     3     4   ar
     7     4     7    1
     8     4     5   ar
     9     5     6   ar
    10     6    19    1
    11     7     9    1
    12     7     8    2
    13     9    20    1
    14    10    11   ar
    15    10    15   ar
    16    11    21    1
    17    11    12   ar
    18    12    22    1
    19    12    13   ar
    20    13    17    1
    21    13    14   ar
    22    14    15   ar
    23    14    23    1
    24    15    16    1
