@<TRIPOS>MOLECULE
DFT_K092_.xyz
 43 45 0 0 0
SMALL
GASTEIGER

@<TRIPOS>ATOM
      1 O           4.9041   -2.3839   -0.1188 O.3     1  UNL1       -0.1095
      2 C           5.0008   -3.7688   -0.4741 C.3     1  UNL1        0.0047
      3 C           6.4583   -4.1980   -0.4157 C.3     1  UNL1        0.0381
      4 N           7.2466   -3.7257   -1.5487 N.3     1  UNL1       -0.3608
      5 C           8.2933   -4.6452   -2.0044 C.3     1  UNL1        0.0337
      6 C           9.5617   -4.5795   -1.1565 C.3     1  UNL1        0.0291
      7 O          10.0588   -3.2492   -1.0969 O.3     1  UNL1       -0.3338
      8 C           9.0848   -2.3493   -0.5747 C.3     1  UNL1        0.0083
      9 C           7.8064   -2.3717   -1.4082 C.3     1  UNL1        0.0263
     10 C           3.6962   -1.7895   -0.0966 C.ar    1  UNL1        0.1241
     11 C           2.4923   -2.4232   -0.4114 C.ar    1  UNL1       -0.0761
     12 C           1.2922   -1.7314   -0.3567 C.ar    1  UNL1       -0.2915
     13 C           1.2457   -0.3866    0.0117 C.ar    1  UNL1        0.0021
     14 C          -0.0163    0.3778    0.0809 C.ar    1  UNL1        0.3086
     15 N           0.0552    1.6540    0.4843 N.ar    1  UNL1       -0.4531
     16 C          -1.0774    2.3468    0.5480 C.ar    1  UNL1        0.4484
     17 N          -2.2981    1.9167    0.2556 N.ar    1  UNL1       -0.5384
     18 CA         -2.3751    0.6461   -0.1477 C.ar    1  UNL1        0.3562
     19 C          -1.2617   -0.1703   -0.2555 C.ar    1  UNL1       -0.1802
     20 C          -3.7572    0.1475   -0.4820 C.2     1  UNL1        0.4958
     21 OXT        -4.7626    0.7952   -0.4095 O.2     1  UNL1       -0.4536
     22 O          -3.7408   -1.1492   -0.8838 O.3     1  UNL1       -0.5186
     23 C           2.4539    0.2494    0.3271 C.ar    1  UNL1       -0.0087
     24 C           3.6487   -0.4338    0.2738 C.ar    1  UNL1        0.0117
     25 CL          5.1326    0.3958    0.6754 Cl      1  UNL1       -0.0870
     26 H           4.4137   -4.3600    0.2359 H       1  UNL1        0.0508
     27 H           4.6116   -3.9197   -1.4834 H       1  UNL1        0.0782
     28 H           6.8631   -3.9093    0.5638 H       1  UNL1        0.0531
     29 H           6.4543   -5.2896   -0.4386 H       1  UNL1        0.1100
     30 H           8.5529   -4.3715   -3.0312 H       1  UNL1        0.0883
     31 H           7.8997   -5.6631   -2.0264 H       1  UNL1        0.0592
     32 H           9.3679   -4.9517   -0.1398 H       1  UNL1        0.0570
     33 H          10.3546   -5.1874   -1.5932 H       1  UNL1        0.0718
     34 H           9.5399   -1.3591   -0.5923 H       1  UNL1        0.0852
     35 H           8.8724   -2.6046    0.4727 H       1  UNL1        0.0727
     36 H           8.0382   -2.0032   -2.4112 H       1  UNL1        0.0872
     37 H           7.0581   -1.7110   -0.9769 H       1  UNL1        0.0217
     38 H           2.4895   -3.4621   -0.7017 H       1  UNL1        0.0956
     39 H           0.3880   -2.2671   -0.6058 H       1  UNL1        0.1973
     40 H          -0.9931    3.3766    0.8755 H       1  UNL1        0.0355
     41 H          -1.3722   -1.1874   -0.5900 H       1  UNL1        0.0579
     42 H          -4.6592   -1.3873   -1.0767 H       1  UNL1        0.4053
     43 H           2.4406    1.2886    0.6157 H       1  UNL1        0.0512
@<TRIPOS>BOND
     1     1    10    1
     2     1     2    1
     3     2    27    1
     4     2    26    1
     5     3     2    1
     6     3    29    1
     7     4     5    1
     8     4     3    1
     9     5    31    1
    10     6    33    1
    11     6    32    1
    12     6     5    1
    13     7     6    1
    14     8    35    1
    15     8     7    1
    16     8     9    1
    17     9     4    1
    18    10    11   ar
    19    11    38    1
    20    12    11   ar
    21    12    39    1
    22    13    12   ar
    23    14    13    1
    24    14    19   ar
    25    15    14   ar
    26    16    15   ar
    27    16    17   ar
    28    17    18   ar
    29    18    19   ar
    30    18    20    1
    31    19    41    1
    32    20    22    1
    33    21    20    2
    34    22    42    1
    35    23    24   ar
    36    23    13   ar
    37    24    10   ar
    38    25    24    1
    39    28     3    1
    40    30     5    1
    41    34     8    1
    42    36     9    1
    43    37     9    1
    44    40    16    1
    45    43    23    1
