@<TRIPOS>MOLECULE
./DFT_K099__PAC_aligned.pdb
 24 25 0 0 0
SMALL
GASTEIGER

@<TRIPOS>ATOM
      1  N         19.7250    1.8390   21.0940 N.ar    1  UNK1       -0.2317
      2  C         20.3410    1.2430   20.0460 C.ar    1  UNK1        0.1164
      3  C         21.8090    1.3220   19.8420 C.ar    1  UNK1        0.1755
      4  C         22.5390    2.0130   20.9040 C.ar    1  UNK1        0.1925
      5  N         21.8280    2.7300   21.7950 N.ar    1  UNK1       -0.2253
      6  C         20.4810    2.6760   21.8170 C.ar    1  UNK1        0.1178
      7  C         24.0640    1.9060   21.0400 C.2     1  UNK1        0.3591
      8  O         24.7250    2.3400   21.9960 O.2     1  UNK1       -0.2433
      9  O         24.6350    1.1830   20.0910 O.3     1  UNK1       -0.4760
     10  O         22.3980    0.5780   18.8270 O.3     1  UNK1       -0.5027
     11  C         19.4610    0.4160   19.1700 C.ar    1  UNK1        0.0055
     12  C         18.4050   -0.3200   19.6780 C.ar    1  UNK1       -0.0510
     13  C         17.4710   -0.9300   18.8860 C.ar    1  UNK1       -0.0413
     14  C         17.5930   -0.9560   17.4930 C.ar    1  UNK1        0.0593
     15  C         18.5830   -0.1530   16.9260 C.ar    1  UNK1        0.0599
     16  C         19.4900    0.6140   17.7350 C.ar    1  UNK1       -0.0327
     17 CL         18.5280    0.1790   15.2000 Cl      1  UNK1       -0.0820
     18 CL         16.3820   -1.7940   16.5340 Cl      1  UNK1       -0.0820
     19  H         19.9610    3.3420   22.5030 H       1  UNK1        0.1047
     20  H         25.5250    1.0350   20.4560 H       1  UNK1        0.2955
     21  H         23.3500    0.6470   19.0100 H       1  UNK1        0.2923
     22  H         18.3330   -0.3450   20.7620 H       1  UNK1        0.0625
     23  H         16.7420   -1.5280   19.4270 H       1  UNK1        0.0633
     24  H         20.2730    1.3060   17.4410 H       1  UNK1        0.0639
@<TRIPOS>BOND
     1     1     2   ar
     2     1     6   ar
     3     2     3   ar
     4     2    11    1
     5     3    10    1
     6     3     4   ar
     7     4     7    1
     8     4     5   ar
     9     5     6   ar
    10     6    19    1
    11     7     9    1
    12     7     8    2
    13     9    20    1
    14    10    21    1
    15    11    16   ar
    16    11    12   ar
    17    12    13   ar
    18    12    22    1
    19    13    14   ar
    20    13    23    1
    21    14    18    1
    22    14    15   ar
    23    15    17    1
    24    15    16   ar
    25    16    24    1
