@<TRIPOS>MOLECULE
./DFT_K002__PAC_aligned.pdb
 23 24 0 0 0
SMALL
GASTEIGER

@<TRIPOS>ATOM
      1  N         19.6910    1.9080   21.0200 N.ar    1  UNL1       -0.2354
      2  C         20.3970    1.2750   20.0650 C.ar    1  UNL1        0.0750
      3  C         21.8000    1.2550   19.9510 C.ar    1  UNL1       -0.0032
      4  CA        22.5210    2.0820   20.7830 C.ar    1  UNL1        0.1511
      5  N         21.8220    2.7120   21.8020 N.ar    1  UNL1       -0.2288
      6  C         20.4920    2.5910   21.8760 C.ar    1  UNL1        0.1175
      7  C         24.0250    2.2400   20.7590 C.2     1  UNL1        0.3554
      8  O         24.6830    2.3250   19.7130 O.2     1  UNL1       -0.2434
      9  OXT       24.6940    2.4720   21.9490 O.3     1  UNL1       -0.4761
     10  C         19.6780    0.6300   18.9700 C.ar    1  UNL1        0.0034
     11  C         20.0010   -0.7200   18.6880 C.ar    1  UNL1       -0.0497
     12  C         19.3130   -1.4210   17.6650 C.ar    1  UNL1       -0.0230
     13  C         18.3640   -0.8010   16.8860 C.ar    1  UNL1        0.1584
     14  C         18.1180    0.5610   17.0180 C.ar    1  UNL1        0.1590
     15  C         18.7030    1.2560   18.1160 C.ar    1  UNL1       -0.0144
     16  F         17.3910    1.2000   16.1530 F       1  UNL1       -0.2025
     17  F         17.9330   -1.4490   15.7610 F       1  UNL1       -0.2025
     18  H         22.3660    0.7340   19.1830 H       1  UNL1        0.0662
     19  H         19.9450    3.0100   22.7180 H       1  UNL1        0.1047
     20  HXT       25.6070    2.6870   21.6910 H       1  UNL1        0.2955
     21  H         20.8200   -1.2010   19.2150 H       1  UNL1        0.0625
     22  H         19.5470   -2.4540   17.4230 H       1  UNL1        0.0647
     23  H         18.4810    2.3190   18.1040 H       1  UNL1        0.0654
@<TRIPOS>BOND
     1     1     2   ar
     2     1     6   ar
     3     2     3   ar
     4     2    10    1
     5     3    18    1
     6     3     4   ar
     7     4     7    1
     8     4     5   ar
     9     5     6   ar
    10     6    19    1
    11     7     8    2
    12     7     9    1
    13     9    20    1
    14    10    11   ar
    15    10    15   ar
    16    11    21    1
    17    11    12   ar
    18    12    22    1
    19    12    13   ar
    20    13    17    1
    21    13    14   ar
    22    14    15   ar
    23    14    16    1
    24    15    23    1
