@<TRIPOS>MOLECULE
DFT_K007_.xyz
 31 33 0 0 0
SMALL
GASTEIGER

@<TRIPOS>ATOM
      1 C           2.5015   -2.3418   -0.7123 C.ar    1  UNL1        0.2558
      2 C           3.6479   -1.8030   -0.1093 C.ar    1  UNL1        0.0059
      3 C           3.5919   -0.5775    0.5335 C.ar    1  UNL1       -0.1197
      4 C           2.4028    0.1325    0.5901 C.ar    1  UNL1       -0.0571
      5 C           1.2481   -0.3851    0.0030 C.ar    1  UNL1        0.0690
      6 C           1.3127   -1.6227   -0.6480 C.ar    1  UNL1       -0.2055
      7 C          -0.0167    0.3801    0.0757 C.ar    1  UNL1        0.3951
      8 C          -1.2619   -0.1717   -0.2507 C.ar    1  UNL1       -0.2527
      9 CA         -2.3757    0.6464   -0.1482 C.ar    1  UNL1        0.3823
     10 N          -2.2974    1.9169    0.2516 N.ar    1  UNL1       -0.5558
     11 C          -1.0773    2.3456    0.5516 C.ar    1  UNL1        0.4804
     12 N           0.0557    1.6538    0.4856 N.ar    1  UNL1       -0.5055
     13 C          -3.7586    0.1477   -0.4801 C.2     1  UNL1        0.4955
     14 O          -4.7619    0.7994   -0.4191 O.2     1  UNL1       -0.4507
     15 OXT        -3.7445   -1.1537   -0.8669 O.3     1  UNL1       -0.5210
     16 CL          5.1514   -2.6791   -0.1743 Cl      1  UNL1       -0.0891
     17 O           2.6362   -3.5447   -1.3269 O.3     1  UNL1       -0.2196
     18 C           1.4983   -4.1512   -1.8886 C.3     1  UNL1        0.0344
     19 C           1.1087   -3.8028   -3.2954 C.3     1  UNL1       -0.1262
     20 C           1.7760   -5.1231   -2.9795 C.3     1  UNL1       -0.3480
     21 H           4.4885   -0.1847    0.9906 H       1  UNL1        0.1320
     22 H           2.3589    1.0891    1.0865 H       1  UNL1        0.0833
     23 H           0.4429   -2.0278   -1.1382 H       1  UNL1        0.0949
     24 H          -1.3731   -1.1970   -0.5594 H       1  UNL1        0.0978
     25 H          -0.9948    3.3736    0.8853 H       1  UNL1        0.0364
     26 HXT        -4.6633   -1.3919   -1.0574 H       1  UNL1        0.4065
     27 H           0.7244   -4.3788   -1.1645 H       1  UNL1        0.1281
     28 H           0.0591   -3.7948   -3.5537 H       1  UNL1        0.0830
     29 H           1.7087   -3.0564   -3.7958 H       1  UNL1        0.1103
     30 H           2.8102   -5.2353   -3.2705 H       1  UNL1        0.1627
     31 H           1.1884   -6.0287   -3.0166 H       1  UNL1        0.1473
@<TRIPOS>BOND
     1     1     6   ar
     2     1    17    1
     3     2     1   ar
     4     3     4   ar
     5     3     2   ar
     6     4     5   ar
     7     5     7    1
     8     5     6   ar
     9     6    23    1
    10     7     8   ar
    11     8     9   ar
    12     8    24    1
    13     9    13    1
    14    10     9   ar
    15    11    10   ar
    16    12    11   ar
    17    12     7   ar
    18    13    14    2
    19    13    15    1
    20    15    26    1
    21    16     2    1
    22    17    18    1
    23    18    27    1
    24    19    28    1
    25    19    20    1
    26    19    18    1
    27    20    18    1
    28    20    31    1
    29    21     3    1
    30    22     4    1
    31    25    11    1
    32    29    19    1
    33    30    20    1
