@<TRIPOS>MOLECULE
./DFT_K009__PAC_aligned.pdb
 26 27 0 0 0
SMALL
GASTEIGER

@<TRIPOS>ATOM
      1  N         19.7410    1.9370   21.0020 N.ar    1  UNL1       -0.2354
      2  C         20.3340    1.1820   20.0280 C.ar    1  UNL1        0.0750
      3  C         21.7830    1.3000   19.9410 C.ar    1  UNL1       -0.0032
      4  CA        22.4900    2.0870   20.8300 C.ar    1  UNL1        0.1511
      5  N         21.8770    2.7360   21.8290 N.ar    1  UNL1       -0.2288
      6  C         20.4980    2.5810   21.8670 C.ar    1  UNL1        0.1175
      7  C         23.9910    2.0780   20.6990 C.2     1  UNL1        0.3554
      8  O         24.7960    1.6270   21.4460 O.2     1  UNL1       -0.2434
      9  OXT       24.4560    2.3350   19.5270 O.3     1  UNL1       -0.4761
     10  C         19.5270    0.4090   19.0590 C.ar    1  UNL1        0.0019
     11  C         18.1240    0.6210   19.0090 C.ar    1  UNL1       -0.0522
     12  C         17.3220   -0.2020   18.2720 C.ar    1  UNL1       -0.0568
     13  C         17.8450   -1.1260   17.4470 C.ar    1  UNL1       -0.0321
     14  C         19.2550   -1.3840   17.4140 C.ar    1  UNL1        0.0445
     15  C         20.0680   -0.6340   18.2660 C.ar    1  UNL1       -0.0339
     16 CL         20.0240   -2.6280   16.4140 Cl      1  UNL1       -0.0832
     17  C         16.9390   -1.8370   16.4770 C.3     1  UNL1       -0.0383
     18  H         22.2770    0.7990   19.1140 H       1  UNL1        0.0662
     19  H         20.0570    2.8820   22.8140 H       1  UNL1        0.1047
     20  HXT       25.4200    2.2240   19.6030 H       1  UNL1        0.2955
     21  H         17.6010    1.4050   19.5470 H       1  UNL1        0.0624
     22  H         16.2500   -0.0260   18.2860 H       1  UNL1        0.0621
     23  H         21.1180   -0.9090   18.3030 H       1  UNL1        0.0639
     24  H         16.8470   -1.2100   15.5820 H       1  UNL1        0.0278
     25  H         17.4550   -2.7780   16.2480 H       1  UNL1        0.0278
     26  H         15.9630   -1.9950   16.9510 H       1  UNL1        0.0278
@<TRIPOS>BOND
     1     1     6   ar
     2     1     2   ar
     3     2    10    1
     4     2     3   ar
     5     3     4   ar
     6     3    18    1
     7     4     5   ar
     8     4     7    1
     9     5     6   ar
    10     6    19    1
    11     7     8    2
    12     7     9    1
    13     9    20    1
    14    10    11   ar
    15    10    15   ar
    16    11    21    1
    17    11    12   ar
    18    12    22    1
    19    12    13   ar
    20    13    17    1
    21    13    14   ar
    22    14    15   ar
    23    14    16    1
    24    15    23    1
    25    17    26    1
    26    17    25    1
    27    17    24    1
