@<TRIPOS>MOLECULE
./DFT_K022__PAC_aligned.pdb
 27 28 0 0 0
SMALL
GASTEIGER

@<TRIPOS>ATOM
      1  N         19.7410    1.8490   21.0360 N.ar    1  UNL1       -0.2354
      2  C         20.3510    1.2690   20.0540 C.ar    1  UNL1        0.0750
      3  C         21.7630    1.3140   19.9380 C.ar    1  UNL1       -0.0032
      4  CA        22.5240    2.0470   20.8540 C.ar    1  UNL1        0.1511
      5  N         21.8420    2.7310   21.7980 N.ar    1  UNL1       -0.2288
      6  C         20.5020    2.6150   21.8160 C.ar    1  UNL1        0.1175
      7  C         24.1160    2.2850   20.5490 C.2     1  UNL1        0.3554
      8  O         24.7020    1.6590   19.6790 O.2     1  UNL1       -0.2434
      9  OXT       24.7720    3.0500   21.4410 O.3     1  UNL1       -0.4761
     10  C         19.5820    0.4820   18.9880 C.ar    1  UNL1        0.0021
     11  C         18.1480    0.5450   19.1130 C.ar    1  UNL1       -0.0490
     12  C         17.2990   -0.1320   18.1920 C.ar    1  UNL1       -0.0175
     13  C         17.9220   -0.8460   17.1590 C.ar    1  UNL1        0.1483
     14  C         19.3390   -0.7440   16.9070 C.ar    1  UNL1        0.0835
     15  C         20.1430   -0.2100   17.9070 C.ar    1  UNL1       -0.0306
     16 CL         20.0700   -1.4820   15.5560 Cl      1  UNL1       -0.0797
     17  O         17.1260   -1.5050   16.2290 O.3     1  UNL1       -0.4043
     18  C         15.8770   -2.1220   16.5500 C.3     1  UNL1        0.5753
     19  F         15.6470   -3.1380   15.7580 F       1  UNL1       -0.1328
     20  F         14.8480   -1.1990   16.5000 F       1  UNL1       -0.1328
     21  F         15.8670   -2.5880   17.7710 F       1  UNL1       -0.1328
     22  H         22.3180    0.7500   19.1940 H       1  UNL1        0.0662
     23  H         20.0120    3.2470   22.5540 H       1  UNL1        0.1047
     24  HXT       25.5370    3.4250   20.9710 H       1  UNL1        0.2955
     25  H         17.7470    1.0090   20.0090 H       1  UNL1        0.0625
     26  H         16.2270   -0.2030   18.3580 H       1  UNL1        0.0655
     27  H         21.2130   -0.2490   17.7240 H       1  UNL1        0.0640
@<TRIPOS>BOND
     1     1     2   ar
     2     1     6   ar
     3     2     3   ar
     4     2    10    1
     5     3    22    1
     6     3     4   ar
     7     4     7    1
     8     4     5   ar
     9     5     6   ar
    10     6    23    1
    11     7     8    2
    12     7     9    1
    13     9    24    1
    14    10    15   ar
    15    10    11   ar
    16    11    25    1
    17    11    12   ar
    18    12    13   ar
    19    12    26    1
    20    13    14   ar
    21    13    17    1
    22    14    15   ar
    23    14    16    1
    24    15    27    1
    25    17    18    1
    26    18    21    1
    27    18    19    1
    28    18    20    1
