@<TRIPOS>MOLECULE
./DFT_K124__PAC_aligned.pdb
 21 22 0 0 0
SMALL
GASTEIGER

@<TRIPOS>ATOM
      1  N         19.7770    1.9250   20.9700 N.ar    1  UNL1       -0.2353
      2  C         20.3700    1.2510   20.0490 C.ar    1  UNL1        0.0754
      3  C         21.7790    1.2290   19.9640 C.ar    1  UNL1        0.0003
      4  C         22.4380    2.1220   20.7900 C.ar    1  UNL1        0.1438
      5  N         21.8310    2.7210   21.8290 N.ar    1  UNL1       -0.2250
      6  C         20.5280    2.5750   21.8950 C.ar    1  UNL1        0.1180
      7  C         23.8840    2.2140   20.7090 C.1     1  UNL1        0.1192
      8  N         25.0000    2.2780   20.6090 N.1     1  UNL1       -0.1893
      9  C         19.5650    0.4900   19.0720 C.ar    1  UNL1        0.0019
     10  C         20.1670   -0.3920   18.1850 C.ar    1  UNL1       -0.0511
     11  C         19.5100   -1.2710   17.2840 C.ar    1  UNL1       -0.0413
     12  C         18.1520   -1.0680   17.1310 C.ar    1  UNL1        0.0593
     13  C         17.4250   -0.2430   18.0790 C.ar    1  UNL1        0.0599
     14  C         18.1430    0.4800   19.0870 C.ar    1  UNL1       -0.0328
     15 CL         15.6920   -0.2820   18.0720 Cl      1  UNL1       -0.0820
     16 CL         17.3260   -2.0400   15.9400 Cl      1  UNL1       -0.0820
     17  H         22.3850    0.6980   19.2340 H       1  UNL1        0.0667
     18  H         19.9290    3.1940   22.5600 H       1  UNL1        0.1047
     19  H         21.2360   -0.5770   18.1290 H       1  UNL1        0.0625
     20  H         20.0160   -2.0040   16.6630 H       1  UNL1        0.0633
     21  H         17.5580    0.9520   19.8710 H       1  UNL1        0.0639
@<TRIPOS>BOND
     1     1     2   ar
     2     1     6   ar
     3     2     3   ar
     4     2     9    1
     5     3    17    1
     6     3     4   ar
     7     4     7    1
     8     4     5   ar
     9     5     6   ar
    10     6    18    1
    11     7     8    3
    12     9    10   ar
    13     9    14   ar
    14    10    19    1
    15    10    11   ar
    16    11    20    1
    17    11    12   ar
    18    12    16    1
    19    12    13   ar
    20    13    14   ar
    21    13    15    1
    22    14    21    1
