@<TRIPOS>MOLECULE
./DFT_K051__PAC_aligned.pdb
 26 27 0 0 0
SMALL
GASTEIGER

@<TRIPOS>ATOM
      1  N         19.8140    1.9120   21.0520 N.ar    1  UNL1       -0.2351
      2  C         20.3730    1.2150   20.0180 C.ar    1  UNL1        0.0779
      3  C         21.7730    1.2650   19.8710 C.ar    1  UNL1        0.0079
      4  CA        22.4570    2.0550   20.8530 C.ar    1  UNL1        0.1540
      5  N         21.7840    2.7460   21.8380 N.ar    1  UNL1       -0.2286
      6  C         20.5220    2.6310   21.8660 C.ar    1  UNL1        0.1175
      7  C         23.9500    1.8970   21.0000 C.2     1  UNL1        0.3557
      8  OXT       24.7050    1.7970   20.0570 O.2     1  UNL1       -0.2434
      9  O         24.4660    2.1950   22.2120 O.3     1  UNL1       -0.4761
     10  C         22.4590    0.3040   18.8720 C.3     1  UNL1       -0.0354
     11  C         19.5130    0.3270   19.2180 C.ar    1  UNL1        0.0022
     12  C         19.1470    0.5770   17.8530 C.ar    1  UNL1       -0.0511
     13  C         18.1720   -0.2040   17.2260 C.ar    1  UNL1       -0.0413
     14  C         17.7140   -1.3380   17.9410 C.ar    1  UNL1        0.0593
     15  C         18.1660   -1.6710   19.2150 C.ar    1  UNL1        0.0599
     16  C         19.1170   -0.8480   19.8840 C.ar    1  UNL1       -0.0328
     17 CL         17.7150   -3.2420   20.0450 Cl      1  UNL1       -0.0820
     18 CL         16.6160   -2.4290   17.0670 Cl      1  UNL1       -0.0820
     19  H         20.0730    3.0940   22.7410 H       1  UNL1        0.1047
     20  H         25.3950    1.9310   22.0940 H       1  UNL1        0.2955
     21  H         23.3280    0.7370   18.3620 H       1  UNL1        0.0279
     22  H         22.7550   -0.6260   19.3730 H       1  UNL1        0.0279
     23  H         21.7770   -0.1680   18.1530 H       1  UNL1        0.0279
     24  H         19.6050    1.4480   17.3920 H       1  UNL1        0.0625
     25  H         17.8010   -0.0010   16.2250 H       1  UNL1        0.0633
     26  H         19.5320   -1.1700   20.8350 H       1  UNL1        0.0639
@<TRIPOS>BOND
     1     1     6   ar
     2     1     2   ar
     3     2    11    1
     4     2     3   ar
     5     3     4   ar
     6     3    10    1
     7     4     5   ar
     8     4     7    1
     9     5     6   ar
    10     6    19    1
    11     7     9    1
    12     7     8    2
    13     9    20    1
    14    10    22    1
    15    10    23    1
    16    10    21    1
    17    11    16   ar
    18    11    12   ar
    19    12    13   ar
    20    12    24    1
    21    13    14   ar
    22    13    25    1
    23    14    15   ar
    24    14    18    1
    25    15    17    1
    26    15    16   ar
    27    16    26    1
