@<TRIPOS>MOLECULE
./DFT_K080__PAC_aligned.pdb
 23 24 0 0 0
SMALL
GASTEIGER

@<TRIPOS>ATOM
      1  N         21.7670    3.5380   22.1810 N.ar    1  UNL1       -0.2354
      2  C         20.9480    2.6360   21.6320 C.ar    1  UNL1        0.0749
      3  C         21.3470    1.8530   20.4980 C.ar    1  UNL1       -0.0032
      4  CA        22.7040    1.8450   20.1750 C.ar    1  UNL1        0.1511
      5  N         23.5700    2.6160   20.8260 N.ar    1  UNL1       -0.2288
      6  C         23.0650    3.4520   21.7540 C.ar    1  UNL1        0.1175
      7  C         23.2760    0.9250   19.0810 C.2     1  UNL1        0.3554
      8  O         22.4960    0.2450   18.4300 O.2     1  UNL1       -0.2434
      9  OXT       24.5890    0.9360   18.8640 O.3     1  UNL1       -0.4761
     10  C         19.5140    2.6190   22.2380 C.ar    1  UNL1        0.0005
     11  C         19.0710    3.5880   23.1370 C.ar    1  UNL1       -0.0526
     12  C         17.7770    3.5100   23.7470 C.ar    1  UNL1       -0.0611
     13  C         16.9710    2.4570   23.4520 C.ar    1  UNL1       -0.0617
     14  C         17.3580    1.4580   22.5500 C.ar    1  UNL1       -0.0611
     15  C         18.6120    1.5250   21.9180 C.ar    1  UNL1       -0.0526
     16  H         20.6110    1.2160   20.0160 H       1  UNL1        0.0662
     17  H         23.7150    4.1970   22.2090 H       1  UNL1        0.1047
     18  HXT       24.6710    0.1170   18.3470 H       1  UNL1        0.2955
     19  H         19.6380    4.4640   23.4390 H       1  UNL1        0.0624
     20  H         17.4500    4.3690   24.3240 H       1  UNL1        0.0618
     21  H         15.9330    2.4770   23.7720 H       1  UNL1        0.0618
     22  H         16.6330    0.6820   22.3240 H       1  UNL1        0.0618
     23  H         18.7600    0.7720   21.1490 H       1  UNL1        0.0624
@<TRIPOS>BOND
     1     1     2   ar
     2     1     6   ar
     3     2    10    1
     4     2     3   ar
     5     3    16    1
     6     3     4   ar
     7     4     5   ar
     8     4     7    1
     9     5     6   ar
    10     6    17    1
    11     7     8    2
    12     7     9    1
    13     9    18    1
    14    10    11   ar
    15    10    15   ar
    16    11    12   ar
    17    11    19    1
    18    12    20    1
    19    12    13   ar
    20    13    21    1
    21    13    14   ar
    22    14    22    1
    23    14    15   ar
    24    15    23    1
