@<TRIPOS>MOLECULE
./DFT_K063__PAC_aligned.pdb
 26 27 0 0 0
SMALL
GASTEIGER

@<TRIPOS>ATOM
      1  N         23.4450    3.3950   22.2020 N.ar    1  UNL1       -0.2354
      2  C         22.4570    2.6950   21.6780 C.ar    1  UNL1        0.0750
      3  C         22.7120    1.7530   20.7100 C.ar    1  UNL1       -0.0032
      4  CA        23.9190    1.7080   20.0930 C.ar    1  UNL1        0.1511
      5  N         24.8690    2.5400   20.4970 N.ar    1  UNL1       -0.2288
      6  C         24.6240    3.3670   21.5180 C.ar    1  UNL1        0.1175
      7  C         24.1330    0.6410   19.0060 C.2     1  UNL1        0.3554
      8  OXT       25.1960    0.4340   18.4920 O.2     1  UNL1       -0.2434
      9  O         23.0270   -0.0930   18.5240 O.3     1  UNL1       -0.4761
     10  C         21.1000    2.8230   22.3050 C.ar    1  UNL1        0.0007
     11  C         21.0260    3.2260   23.6580 C.ar    1  UNL1       -0.0525
     12  C         19.8160    3.2890   24.3330 C.ar    1  UNL1       -0.0609
     13  C         18.6310    3.0390   23.6550 C.ar    1  UNL1       -0.0588
     14  C         18.6750    2.6420   22.3140 C.ar    1  UNL1       -0.0498
     15  C         19.9470    2.5200   21.5630 C.ar    1  UNL1       -0.0496
     16  C         17.2890    2.3220   21.5450 C.3     1  UNL1       -0.0397
     17  H         21.9770    1.0080   20.4180 H       1  UNL1        0.0662
     18  H         25.4870    3.8870   21.9280 H       1  UNL1        0.1047
     19  H         23.3470   -0.5540   17.7290 H       1  UNL1        0.2955
     20  H         21.8970    3.5160   24.2380 H       1  UNL1        0.0624
     21  H         19.7610    3.6930   25.3400 H       1  UNL1        0.0618
     22  H         17.6840    3.0370   24.1870 H       1  UNL1        0.0620
     23  H         19.8890    2.1480   20.5440 H       1  UNL1        0.0627
     24  H         16.4740    2.3620   22.2790 H       1  UNL1        0.0278
     25  H         17.3640    1.3850   20.9800 H       1  UNL1        0.0278
     26  H         17.0890    3.1360   20.8380 H       1  UNL1        0.0278
@<TRIPOS>BOND
     1     1     2   ar
     2     1     6   ar
     3     2    10    1
     4     2     3   ar
     5     3    17    1
     6     3     4   ar
     7     4     7    1
     8     4     5   ar
     9     5     6   ar
    10     6    18    1
    11     7     9    1
    12     7     8    2
    13     9    19    1
    14    10    15   ar
    15    10    11   ar
    16    11    12   ar
    17    11    20    1
    18    12    13   ar
    19    12    21    1
    20    13    22    1
    21    13    14   ar
    22    14    16    1
    23    14    15   ar
    24    15    23    1
    25    16    24    1
    26    16    25    1
    27    16    26    1
