@<TRIPOS>MOLECULE
DFT_K003_.xyz
 23 24 0 0 0
SMALL
GASTEIGER

@<TRIPOS>ATOM
      1 N           0.0559    1.6539    0.4855 N.ar    1  UNL1       -0.4837
      2 C          -0.0190    0.3809    0.0770 C.ar    1  UNL1        0.3613
      3 C          -1.2615   -0.1723   -0.2521 C.ar    1  UNL1       -0.2424
      4 CA         -2.3758    0.6461   -0.1481 C.ar    1  UNL1        0.4164
      5 N          -2.2964    1.9157    0.2524 N.ar    1  UNL1       -0.5524
      6 C          -1.0767    2.3467    0.5509 C.ar    1  UNL1        0.4750
      7 C          -3.7596    0.1475   -0.4805 C.2     1  UNL1        0.4742
      8 O          -4.7614    0.8008   -0.4172 O.2     1  UNL1       -0.4445
      9 OXT        -3.7428   -1.1520   -0.8683 O.3     1  UNL1       -0.5311
     10 C           1.2474   -0.3841    0.0070 C.ar    1  UNL1        0.0811
     11 C           2.4171    0.1562    0.5513 C.ar    1  UNL1       -0.0318
     12 C           3.6120   -0.5422    0.5043 C.ar    1  UNL1       -0.1053
     13 C           3.6682   -1.7956   -0.0933 C.ar    1  UNL1        0.0302
     14 C           2.5071   -2.3306   -0.6396 C.ar    1  UNL1        0.2556
     15 C           1.3103   -1.6442   -0.5938 C.ar    1  UNL1       -0.1863
     16 F           2.5419   -3.5339   -1.2280 F       1  UNL1       -0.1622
     17 CL          5.1556   -2.6866   -0.1659 Cl      1  UNL1       -0.0508
     18 H          -1.3727   -1.1961   -0.5663 H       1  UNL1        0.0983
     19 H          -0.9944    3.3751    0.8827 H       1  UNL1        0.0341
     20 HXT        -4.6595   -1.3952   -1.0624 H       1  UNL1        0.4169
     21 H           2.3751    1.1314    1.0105 H       1  UNL1        0.0806
     22 H           4.5117   -0.1227    0.9303 H       1  UNL1        0.1311
     23 H           0.4498   -2.1127   -1.0474 H       1  UNL1        0.1583
@<TRIPOS>BOND
     1     1     6   ar
     2     2     1   ar
     3     3     4   ar
     4     3     2   ar
     5     4     5   ar
     6     5     6   ar
     7     6    19    1
     8     7     8    2
     9     7     4    1
    10     9     7    1
    11    10     2    1
    12    10    11   ar
    13    11    21    1
    14    12    11   ar
    15    12    22    1
    16    13    12   ar
    17    14    15   ar
    18    14    13   ar
    19    15    10   ar
    20    16    14    1
    21    17    13    1
    22    18     3    1
    23    20     9    1
    24    23    15    1
