@<TRIPOS>MOLECULE
DFT_K102_.xyz
 25 26 0 0 0
SMALL
GASTEIGER

@<TRIPOS>ATOM
      1 N           0.0514    1.6518    0.4899 N.ar    1  UNL1       -0.5179
      2 C          -0.0122    0.3980    0.0676 C.ar    1  UNL1        0.3868
      3 C          -1.2657   -0.2078   -0.2513 C.ar    1  UNL1        0.0158
      4 CA         -2.3874    0.6482   -0.1488 C.ar    1  UNL1        0.3499
      5 N          -2.2802    1.9208    0.2459 N.ar    1  UNL1       -0.5319
      6 C          -1.0793    2.3599    0.5623 C.ar    1  UNL1        0.4006
      7 C          -3.7525    0.1436   -0.4533 C.2     1  UNL1        0.4992
      8 OXT        -4.0071   -1.0106   -0.7495 O.2     1  UNL1       -0.5073
      9 O          -4.7071    1.0783   -0.3674 O.3     1  UNL1       -0.5147
     10 N          -1.3654   -1.5082   -0.6356 N.pl3   1  UNL1       -0.6388
     11 C           1.2794   -0.3317   -0.0202 C.ar    1  UNL1        0.0495
     12 C           1.6066   -1.1669   -1.0929 C.ar    1  UNL1       -0.0714
     13 C           2.8480   -1.7804   -1.1558 C.ar    1  UNL1       -0.0915
     14 C           3.7835   -1.5854   -0.1471 C.ar    1  UNL1        0.0239
     15 C           3.4698   -0.7479    0.9253 C.ar    1  UNL1        0.0501
     16 C           2.2329   -0.1237    0.9774 C.ar    1  UNL1       -0.0754
     17 CL          4.6070   -0.4626    2.2114 Cl      1  UNL1       -0.0654
     18 CL          5.3217   -2.3874   -0.2573 Cl      1  UNL1       -0.0649
     19 H          -0.9942    3.3833    0.9045 H       1  UNL1        0.0484
     20 H          -5.5413    0.6338   -0.5793 H       1  UNL1        0.4203
     21 H          -0.6035   -2.1302   -0.4337 H       1  UNL1        0.2950
     22 H          -2.2993   -1.8865   -0.7051 H       1  UNL1        0.3539
     23 H           0.9077   -1.3159   -1.9030 H       1  UNL1        0.1045
     24 H           3.1050   -2.4118   -1.9934 H       1  UNL1        0.1112
     25 H           2.0087    0.5420    1.7964 H       1  UNL1        0.1006
@<TRIPOS>BOND
     1     1     6   ar
     2     2     1   ar
     3     3     4   ar
     4     3     2   ar
     5     4     5   ar
     6     5     6   ar
     7     6    19    1
     8     7     9    1
     9     7     4    1
    10     8     7    2
    11    10    22    1
    12    10     3    1
    13    10    21    1
    14    11     2    1
    15    11    16   ar
    16    12    11   ar
    17    13    12   ar
    18    13    14   ar
    19    14    15   ar
    20    15    16   ar
    21    15    17    1
    22    16    25    1
    23    18    14    1
    24    20     9    1
    25    23    12    1
    26    24    13    1
