@<TRIPOS>MOLECULE
./DFT_K083__PAC_aligned.pdb
 27 28 0 0 0
SMALL
GASTEIGER

@<TRIPOS>ATOM
      1  N         19.7280    1.8820   20.9980 N.ar    1  UNL1       -0.2317
      2  C         20.3690    1.2400   20.0370 C.ar    1  UNL1        0.1166
      3  C         21.7550    1.2940   19.9430 C.ar    1  UNL1        0.1783
      4  CA        22.5010    2.0550   20.8410 C.ar    1  UNL1        0.1927
      5  N         21.8910    2.7660   21.8020 N.ar    1  UNL1       -0.2253
      6  C         20.4790    2.5870   21.8760 C.ar    1  UNL1        0.1178
      7  C         24.0530    2.0970   20.7110 C.2     1  UNL1        0.3591
      8  O         24.6470    3.1330   20.4090 O.2     1  UNL1       -0.2433
      9  OXT       24.7290    0.9870   20.9480 O.3     1  UNL1       -0.4760
     10  O         22.3230    0.5310   18.9470 O.3     1  UNL1       -0.4906
     11  C         22.6510    1.1500   17.6840 C.3     1  UNL1        0.0790
     12  C         19.4540    0.4650   19.0140 C.ar    1  UNL1        0.0055
     13  C         19.8560   -0.8120   18.4590 C.ar    1  UNL1       -0.0510
     14  C         19.0210   -1.5000   17.5700 C.ar    1  UNL1       -0.0413
     15  C         17.8350   -0.9030   17.1350 C.ar    1  UNL1        0.0593
     16  C         17.4450    0.3320   17.5940 C.ar    1  UNL1        0.0599
     17  C         18.1780    0.9830   18.6250 C.ar    1  UNL1       -0.0327
     18 CL         15.9940    1.1310   16.9960 Cl      1  UNL1       -0.0820
     19 CL         16.6720   -1.7200   15.9460 Cl      1  UNL1       -0.0820
     20  H         19.9680    3.2090   22.6090 H       1  UNL1        0.1047
     21  HXT       25.6440    1.3070   20.8600 H       1  UNL1        0.2955
     22  H         23.2220    0.5010   17.0080 H       1  UNL1        0.0660
     23  H         21.6780    1.3610   17.2220 H       1  UNL1        0.0660
     24  H         23.1450    2.1110   17.8710 H       1  UNL1        0.0660
     25  H         20.7840   -1.3320   18.6790 H       1  UNL1        0.0625
     26  H         19.1130   -2.5350   17.2560 H       1  UNL1        0.0633
     27  H         17.8300    1.9280   19.0290 H       1  UNL1        0.0639
@<TRIPOS>BOND
     1     1     6   ar
     2     1     2   ar
     3     2    12    1
     4     2     3   ar
     5     3     4   ar
     6     3    10    1
     7     4     5   ar
     8     4     7    1
     9     5     6   ar
    10     6    20    1
    11     7     8    2
    12     7     9    1
    13     9    21    1
    14    10    11    1
    15    11    24    1
    16    11    23    1
    17    11    22    1
    18    12    17   ar
    19    12    13   ar
    20    13    14   ar
    21    13    25    1
    22    14    15   ar
    23    14    26    1
    24    15    16   ar
    25    15    19    1
    26    16    18    1
    27    16    17   ar
    28    17    27    1
