@<TRIPOS>MOLECULE
./DFT_K020__PAC_aligned.pdb
 32 34 0 0 0
SMALL
GASTEIGER

@<TRIPOS>ATOM
      1  N         19.7700    1.8870   21.0790 N.ar    1  UNL1       -0.2354
      2  C         20.3690    1.2340   20.0280 C.ar    1  UNL1        0.0750
      3  C         21.8060    1.2870   19.8510 C.ar    1  UNL1       -0.0032
      4  CA        22.4610    2.0260   20.8860 C.ar    1  UNL1        0.1511
      5  N         21.8040    2.7520   21.8020 N.ar    1  UNL1       -0.2288
      6  C         20.5130    2.6380   21.8500 C.ar    1  UNL1        0.1175
      7  C         24.0240    1.9020   20.7760 C.2     1  UNL1        0.3554
      8  O         24.5660    0.8490   20.3440 O.2     1  UNL1       -0.2434
      9  OXT       24.7960    2.8930   21.1760 O.3     1  UNL1       -0.4761
     10  C         19.5480    0.4410   19.0210 C.ar    1  UNL1        0.0021
     11  C         18.3850   -0.1430   19.4310 C.ar    1  UNL1       -0.0490
     12  C         17.5360   -0.7740   18.5360 C.ar    1  UNL1       -0.0178
     13  C         17.9050   -0.9180   17.2030 C.ar    1  UNL1        0.1394
     14  C         19.1710   -0.5060   16.8360 C.ar    1  UNL1        0.0832
     15  C         20.0060    0.1480   17.6950 C.ar    1  UNL1       -0.0306
     16 CL         19.6920   -0.7530   15.2480 Cl      1  UNL1       -0.0797
     17  O         17.1130   -1.5560   16.3250 O.3     1  UNL1       -0.4828
     18  C         16.1350   -2.5460   16.7100 C.3     1  UNL1        0.1465
     19  C         16.7470   -3.8570   17.2580 C.3     1  UNL1        0.0869
     20  O         15.8600   -4.6910   16.4430 O.3     1  UNL1       -0.3723
     21  C         15.9270   -3.6030   15.4750 C.3     1  UNL1        0.0869
     22  H         22.3070    0.6810   19.1010 H       1  UNL1        0.0662
     23  H         20.0240    3.2410   22.6110 H       1  UNL1        0.1047
     24  HXT       25.6460    2.4200   21.1970 H       1  UNL1        0.2955
     25  H         18.1810   -0.1240   20.4970 H       1  UNL1        0.0625
     26  H         16.5260   -1.0650   18.8060 H       1  UNL1        0.0655
     27  H         21.0370    0.3460   17.4160 H       1  UNL1        0.0640
     28  H         15.1770   -2.1610   17.0750 H       1  UNL1        0.0780
     29  H         16.5480   -3.8700   18.3340 H       1  UNL1        0.0597
     30  H         17.8100   -3.9950   17.0330 H       1  UNL1        0.0597
     31  H         16.7540   -3.7410   14.7720 H       1  UNL1        0.0597
     32  H         14.9730   -3.4850   14.9510 H       1  UNL1        0.0597
@<TRIPOS>BOND
     1     1     2   ar
     2     1     6   ar
     3     2     3   ar
     4     2    10    1
     5     3    22    1
     6     3     4   ar
     7     4     7    1
     8     4     5   ar
     9     5     6   ar
    10     6    23    1
    11     7     8    2
    12     7     9    1
    13     9    24    1
    14    10    15   ar
    15    10    11   ar
    16    11    12   ar
    17    11    25    1
    18    12    13   ar
    19    12    26    1
    20    13    14   ar
    21    13    17    1
    22    14    16    1
    23    14    15   ar
    24    15    27    1
    25    17    18    1
    26    18    21    1
    27    18    19    1
    28    18    28    1
    29    19    30    1
    30    19    20    1
    31    19    29    1
    32    20    21    1
    33    21    31    1
    34    21    32    1
