@<TRIPOS>MOLECULE
./DFT_K022__PAC_aligned.pdb
 27 28 0 0 0
SMALL
GASTEIGER

@<TRIPOS>ATOM
      1  N         18.2600   20.2990    2.1600 N.ar    1  UNL1       -0.2354
      2  C         17.5660   20.4560    1.0260 C.ar    1  UNL1        0.0750
      3  C         18.2470   20.3120   -0.2520 C.ar    1  UNL1       -0.0032
      4  CA        19.5680   20.0130   -0.2310 C.ar    1  UNL1        0.1511
      5  N         20.1830   19.7440    0.9090 N.ar    1  UNL1       -0.2288
      6  C         19.4770   19.8310    2.0680 C.ar    1  UNL1        0.1175
      7  C         20.2870   19.6230   -1.5790 C.2     1  UNL1        0.3554
      8  O         19.6600   19.5100   -2.6030 O.2     1  UNL1       -0.2434
      9  OXT       21.6150   19.4480   -1.6310 O.3     1  UNL1       -0.4761
     10  C         16.1360   20.8030    1.1990 C.ar    1  UNL1        0.0021
     11  C         15.4230   20.5230    2.4110 C.ar    1  UNL1       -0.0490
     12  C         14.0490   20.8460    2.5380 C.ar    1  UNL1       -0.0175
     13  C         13.3280   21.4580    1.4710 C.ar    1  UNL1        0.1483
     14  C         14.0810   21.7930    0.2860 C.ar    1  UNL1        0.0835
     15  C         15.4160   21.4650    0.2040 C.ar    1  UNL1       -0.0306
     16 CL         13.2200   22.3680   -1.1370 Cl      1  UNL1       -0.0797
     17  O         12.0680   21.8340    1.4710 O.3     1  UNL1       -0.4043
     18  C         11.2210   22.0450    2.5760 C.3     1  UNL1        0.5753
     19  F         10.0100   22.3810    2.2390 F       1  UNL1       -0.1328
     20  F         11.7320   22.9690    3.3790 F       1  UNL1       -0.1328
     21  F         11.1080   20.9080    3.3030 F       1  UNL1       -0.1328
     22  H         17.6740   20.4190   -1.1680 H       1  UNL1        0.0662
     23  H         19.8950   19.5090    3.0200 H       1  UNL1        0.1047
     24  HXT       21.6950   19.3030   -2.5900 H       1  UNL1        0.2955
     25  H         15.8800   20.0830    3.2920 H       1  UNL1        0.0625
     26  H         13.5990   20.4750    3.4530 H       1  UNL1        0.0655
     27  H         15.8880   21.6430   -0.7580 H       1  UNL1        0.0640
@<TRIPOS>BOND
     1     1     2   ar
     2     1     6   ar
     3     2    10    1
     4     2     3   ar
     5     3    22    1
     6     3     4   ar
     7     4     7    1
     8     4     5   ar
     9     5     6   ar
    10     6    23    1
    11     7     8    2
    12     7     9    1
    13     9    24    1
    14    10    15   ar
    15    10    11   ar
    16    11    12   ar
    17    11    25    1
    18    12    13   ar
    19    12    26    1
    20    13    17    1
    21    13    14   ar
    22    14    16    1
    23    14    15   ar
    24    15    27    1
    25    17    18    1
    26    18    19    1
    27    18    21    1
    28    18    20    1
