@<TRIPOS>MOLECULE
./DFT_K102__PAC_aligned.pdb
 25 26 0 0 0
SMALL
GASTEIGER

@<TRIPOS>ATOM
      1  N         18.2370   20.2480    2.1110 N.ar    1  UNL1       -0.2335
      2  C         17.5470   20.4470    1.0260 C.ar    1  UNL1        0.0956
      3  C         18.1960   20.3750   -0.2550 C.ar    1  UNL1        0.0837
      4  CA        19.5850   19.9880   -0.2150 C.ar    1  UNL1        0.1717
      5  N         20.1740   19.6890    0.9690 N.ar    1  UNL1       -0.2270
      6  C         19.5620   19.9080    2.0440 C.ar    1  UNL1        0.1176
      7  C         20.4930   19.9820   -1.4450 C.2     1  UNL1        0.3573
      8  O         21.7140   20.0390   -1.5010 O.2     1  UNL1       -0.2433
      9  OXT       19.8120   19.8320   -2.5640 O.3     1  UNL1       -0.4760
     10  N         17.4710   20.4970   -1.4160 N.pl3   1  UNL1       -0.3545
     11  C         16.0900   20.7900    1.1990 C.ar    1  UNL1        0.0037
     12  C         15.1940   19.7920    1.6690 C.ar    1  UNL1       -0.0510
     13  C         13.8390   20.0850    1.8770 C.ar    1  UNL1       -0.0413
     14  C         13.2890   21.3250    1.5030 C.ar    1  UNL1        0.0593
     15  C         14.1140   22.3230    1.0080 C.ar    1  UNL1        0.0599
     16  C         15.5300   22.0650    0.8380 C.ar    1  UNL1       -0.0327
     17 CL         13.4930   23.8980    0.6280 Cl      1  UNL1       -0.0820
     18 CL         11.6320   21.8000    1.8310 Cl      1  UNL1       -0.0820
     19  H         20.0260   19.5670    2.9670 H       1  UNL1        0.1047
     20  HXT       20.5680   19.9560   -3.1650 H       1  UNL1        0.2955
     21  H         17.9350   20.3720   -2.3070 H       1  UNL1        0.1424
     22  H         16.4620   20.5570   -1.3810 H       1  UNL1        0.1424
     23  H         15.7200   18.9160    2.0380 H       1  UNL1        0.0625
     24  H         13.1650   19.3670    2.3360 H       1  UNL1        0.0633
     25  H         16.2070   22.8440    0.5000 H       1  UNL1        0.0639
@<TRIPOS>BOND
     1     1     6   ar
     2     1     2   ar
     3     2     3   ar
     4     2    11    1
     5     3     4   ar
     6     3    10    1
     7     4     7    1
     8     4     5   ar
     9     5     6   ar
    10     6    19    1
    11     7     8    2
    12     7     9    1
    13     9    20    1
    14    10    21    1
    15    10    22    1
    16    11    16   ar
    17    11    12   ar
    18    12    23    1
    19    12    13   ar
    20    13    14   ar
    21    13    24    1
    22    14    15   ar
    23    14    18    1
    24    15    16   ar
    25    15    17    1
    26    16    25    1
