@<TRIPOS>MOLECULE
./DFT_K099__PAC_aligned.pdb
 24 25 0 0 0
SMALL
GASTEIGER

@<TRIPOS>ATOM
      1  N         18.2130   20.2120    2.1340 N.ar    1  UNK1       -0.2317
      2  C         17.5890   20.4930    1.0100 C.ar    1  UNK1        0.1164
      3  C         18.1950   20.3540   -0.2390 C.ar    1  UNK1        0.1755
      4  C         19.5490   19.9630   -0.2340 C.ar    1  UNK1        0.1925
      5  N         20.2430   19.7330    0.9410 N.ar    1  UNK1       -0.2253
      6  C         19.5120   19.9000    2.0660 C.ar    1  UNK1        0.1178
      7  C         20.3270   19.8810   -1.5680 C.2     1  UNK1        0.3591
      8  O         21.5420   19.8670   -1.6470 O.2     1  UNK1       -0.2433
      9  O         19.6200   19.8610   -2.7390 O.3     1  UNK1       -0.4760
     10  O         17.4730   20.5240   -1.4330 O.3     1  UNK1       -0.5027
     11  C         16.2070   20.9650    1.2150 C.ar    1  UNK1        0.0055
     12  C         15.1490   20.0160    1.2540 C.ar    1  UNK1       -0.0510
     13  C         13.8640   20.3980    1.5430 C.ar    1  UNK1       -0.0413
     14  C         13.5460   21.7480    1.7920 C.ar    1  UNK1        0.0593
     15  C         14.4830   22.7210    1.7470 C.ar    1  UNK1        0.0599
     16  C         15.8720   22.3330    1.5420 C.ar    1  UNK1       -0.0327
     17 CL         14.1270   24.3980    2.0100 Cl      1  UNK1       -0.0820
     18 CL         11.8070   22.1940    1.9450 Cl      1  UNK1       -0.0820
     19  H         19.8930   19.5720    3.0290 H       1  UNK1        0.1047
     20  H         20.3010   19.8340   -3.4320 H       1  UNK1        0.2955
     21  H         18.0760   20.5340   -2.1970 H       1  UNK1        0.2923
     22  H         15.4700   18.9940    1.0750 H       1  UNK1        0.0625
     23  H         13.0160   19.7240    1.4700 H       1  UNK1        0.0633
     24  H         16.6340   23.1060    1.5590 H       1  UNK1        0.0639
@<TRIPOS>BOND
     1     1     2   ar
     2     1     6   ar
     3     2    11    1
     4     2     3   ar
     5     3    10    1
     6     3     4   ar
     7     4     7    1
     8     4     5   ar
     9     5     6   ar
    10     6    19    1
    11     7     9    1
    12     7     8    2
    13     9    20    1
    14    10    21    1
    15    11    16   ar
    16    11    12   ar
    17    12    13   ar
    18    12    22    1
    19    13    14   ar
    20    13    23    1
    21    14    18    1
    22    14    15   ar
    23    15    17    1
    24    15    16   ar
    25    16    24    1
