@<TRIPOS>MOLECULE
./DFT_K105__PAC_aligned.pdb
 40 42 0 0 0
SMALL
GASTEIGER

@<TRIPOS>ATOM
      1  N         18.2490   20.2990    2.1270 N.ar    1  UNL1       -0.2354
      2  C         17.5400   20.4560    1.0000 C.ar    1  UNL1        0.0750
      3  C         18.2270   20.3310   -0.2040 C.ar    1  UNL1       -0.0032
      4  CA        19.5810   20.0010   -0.2240 C.ar    1  UNL1        0.1511
      5  N         20.2000   19.7370    0.9040 N.ar    1  UNL1       -0.2288
      6  C         19.5040   19.8300    2.0760 C.ar    1  UNL1        0.1175
      7  C         20.3660   19.6550   -1.5510 C.2     1  UNL1        0.3554
      8  O         21.4120   19.0930   -1.5540 O.2     1  UNL1       -0.2434
      9  OXT       19.7140   20.0190   -2.6840 O.3     1  UNL1       -0.4761
     10  C         16.1320   21.1200    1.0760 C.ar    1  UNL1        0.0021
     11  C         15.3960   20.8600    2.2720 C.ar    1  UNL1       -0.0490
     12  C         14.0850   21.4090    2.4250 C.ar    1  UNL1       -0.0178
     13  C         13.4320   22.1550    1.4390 C.ar    1  UNL1        0.1392
     14  C         14.1270   22.2950    0.1870 C.ar    1  UNL1        0.0832
     15  C         15.4310   21.7570   -0.0110 C.ar    1  UNL1       -0.0306
     16 CL         13.3320   23.0500   -1.2000 Cl      1  UNL1       -0.0797
     17  O         12.1660   22.8030    1.6650 O.3     1  UNL1       -0.4874
     18  C         11.5720   23.0830    2.8920 C.3     1  UNL1        0.1003
     19  C         10.0800   23.6880    2.4870 C.3     1  UNL1       -0.0158
     20  C          9.9680   25.2260    2.6330 C.3     1  UNL1       -0.0497
     21  C         11.3280   25.9290    2.1200 C.3     1  UNL1       -0.0528
     22  C         12.5600   25.3480    2.7870 C.3     1  UNL1       -0.0497
     23  C         12.3980   24.1590    3.6710 C.3     1  UNL1       -0.0158
     24  H         17.7970   20.6070   -1.1610 H       1  UNL1        0.0662
     25  H         20.0210   19.5750    2.9990 H       1  UNL1        0.1047
     26  HXT       20.3380   20.0300   -3.4310 H       1  UNL1        0.2955
     27  H         15.7820   20.1970    3.0410 H       1  UNL1        0.0625
     28  H         13.5450   21.1720    3.3370 H       1  UNL1        0.0655
     29  H         15.9270   21.7650   -0.9760 H       1  UNL1        0.0640
     30  H         11.3600   22.2050    3.5160 H       1  UNL1        0.0733
     31  H          9.3090   23.1920    3.0890 H       1  UNL1        0.0301
     32  H          9.8120   23.3660    1.4730 H       1  UNL1        0.0301
     33  H          9.0900   25.5040    2.0380 H       1  UNL1        0.0266
     34  H          9.6970   25.5490    3.6460 H       1  UNL1        0.0266
     35  H         11.3760   25.8320    1.0290 H       1  UNL1        0.0265
     36  H         11.0850   26.9880    2.2810 H       1  UNL1        0.0265
     37  H         13.0460   26.1370    3.3730 H       1  UNL1        0.0266
     38  H         13.3020   25.2440    1.9860 H       1  UNL1        0.0266
     39  H         11.9640   24.3090    4.6680 H       1  UNL1        0.0301
     40  H         13.4250   23.7820    3.7310 H       1  UNL1        0.0301
@<TRIPOS>BOND
     1     1     6   ar
     2     1     2   ar
     3     2     3   ar
     4     2    10    1
     5     3     4   ar
     6     3    24    1
     7     4     5   ar
     8     4     7    1
     9     5     6   ar
    10     6    25    1
    11     7     8    2
    12     7     9    1
    13     9    26    1
    14    10    11   ar
    15    10    15   ar
    16    11    27    1
    17    11    12   ar
    18    12    28    1
    19    12    13   ar
    20    13    17    1
    21    13    14   ar
    22    14    15   ar
    23    14    16    1
    24    15    29    1
    25    17    18    1
    26    18    30    1
    27    18    23    1
    28    18    19    1
    29    19    31    1
    30    19    32    1
    31    19    20    1
    32    20    34    1
    33    20    21    1
    34    20    33    1
    35    21    22    1
    36    21    35    1
    37    21    36    1
    38    22    23    1
    39    22    37    1
    40    22    38    1
    41    23    40    1
    42    23    39    1
