@<TRIPOS>MOLECULE
./DFT_K004__PAC_aligned.pdb
 23 24 0 0 0
SMALL
GASTEIGER

@<TRIPOS>ATOM
      1  N         18.2230   20.1300    2.1040 N.ar    1  UNL1       -0.2354
      2  C         17.5690   20.5340    1.0270 C.ar    1  UNL1        0.0750
      3  C         18.2520   20.3760   -0.1970 C.ar    1  UNL1       -0.0032
      4  CA        19.5410   19.8990   -0.2280 C.ar    1  UNL1        0.1511
      5  N         20.1950   19.7570    0.9580 N.ar    1  UNL1       -0.2288
      6  C         19.5200   19.9600    2.0160 C.ar    1  UNL1        0.1175
      7  C         20.3120   19.7390   -1.6060 C.2     1  UNL1        0.3554
      8  O         21.5080   19.4700   -1.6770 O.2     1  UNL1       -0.2434
      9  OXT       19.6540   20.1920   -2.6810 O.3     1  UNL1       -0.4761
     10  C         16.1170   20.8340    1.0790 C.ar    1  UNL1        0.0032
     11  C         15.5060   21.6990    0.1480 C.ar    1  UNL1       -0.0524
     12  C         14.2020   22.0390    0.4600 C.ar    1  UNL1       -0.0584
     13  C         13.5010   21.4860    1.4470 C.ar    1  UNL1       -0.0264
     14  C         14.0870   20.6640    2.3240 C.ar    1  UNL1        0.1240
     15  C         15.4080   20.3380    2.2040 C.ar    1  UNL1       -0.0173
     16  F         13.2410   20.1060    3.2540 F       1  UNL1       -0.2055
     17  H         17.7250   20.5530   -1.1290 H       1  UNL1        0.0662
     18  H         19.9880   19.7350    2.9710 H       1  UNL1        0.1047
     19  HXT       20.3710   20.1430   -3.3370 H       1  UNL1        0.2955
     20  H         16.0980   22.0710   -0.6830 H       1  UNL1        0.0624
     21  H         13.6900   22.6940   -0.2380 H       1  UNL1        0.0619
     22  H         12.4670   21.7880    1.5810 H       1  UNL1        0.0646
     23  H         15.9530   19.6370    2.8280 H       1  UNL1        0.0653
@<TRIPOS>BOND
     1     1     6   ar
     2     1     2   ar
     3     2     3   ar
     4     2    10    1
     5     3     4   ar
     6     3    17    1
     7     4     7    1
     8     4     5   ar
     9     5     6   ar
    10     6    18    1
    11     7     8    2
    12     7     9    1
    13     9    19    1
    14    10    15   ar
    15    10    11   ar
    16    11    20    1
    17    11    12   ar
    18    12    13   ar
    19    12    21    1
    20    13    14   ar
    21    13    22    1
    22    14    15   ar
    23    14    16    1
    24    15    23    1
