@<TRIPOS>MOLECULE
./DFT_K086__PAC_aligned.pdb
 37 39 0 0 0
SMALL
GASTEIGER

@<TRIPOS>ATOM
      1  N         18.2720   20.2820    2.1560 N.ar    1  UNL1       -0.2354
      2  C         17.5250   20.4400    1.0020 C.ar    1  UNL1        0.0750
      3  C         18.2180   20.3660   -0.2530 C.ar    1  UNL1       -0.0032
      4  CA        19.5700   19.9900   -0.2610 C.ar    1  UNL1        0.1511
      5  N         20.2020   19.7170    0.9620 N.ar    1  UNL1       -0.2288
      6  C         19.5140   19.8600    2.0740 C.ar    1  UNL1        0.1175
      7  C         20.2230   19.6760   -1.6090 C.2     1  UNL1        0.3554
      8  O         19.8540   20.1810   -2.6560 O.2     1  UNL1       -0.2434
      9  OXT       21.1230   18.7050   -1.6430 O.3     1  UNL1       -0.4761
     10  C         16.1340   20.9070    1.0060 C.ar    1  UNL1        0.0021
     11  C         15.1670   20.7250   -0.0210 C.ar    1  UNL1       -0.0490
     12  C         13.9020   21.3010    0.0710 C.ar    1  UNL1       -0.0178
     13  C         13.5880   22.0940    1.1610 C.ar    1  UNL1        0.1392
     14  C         14.4920   22.2350    2.2100 C.ar    1  UNL1        0.0832
     15  C         15.7250   21.5810    2.1940 C.ar    1  UNL1       -0.0306
     16 CL         14.1380   23.3420    3.6700 Cl      1  UNL1       -0.0797
     17  O         12.3480   22.6820    1.1990 O.3     1  UNL1       -0.4874
     18  C         11.1190   22.0170    0.5600 C.3     1  UNL1        0.1003
     19  C          9.9880   22.2240    1.4940 C.3     1  UNL1       -0.0158
     20  C          9.4920   23.6670    1.2280 C.3     1  UNL1       -0.0496
     21  C          9.9420   24.0830   -0.2340 C.3     1  UNL1       -0.0496
     22  C         10.8920   22.8900   -0.7110 C.3     1  UNL1       -0.0158
     23  H         17.6740   20.5420   -1.1760 H       1  UNL1        0.0662
     24  H         20.0160   19.5760    2.9970 H       1  UNL1        0.1047
     25  HXT       21.2140   18.6310   -2.6090 H       1  UNL1        0.2955
     26  H         15.3810   20.0060   -0.8080 H       1  UNL1        0.0625
     27  H         13.1600   21.1880   -0.7130 H       1  UNL1        0.0655
     28  H         16.4190   21.7720    3.0080 H       1  UNL1        0.0640
     29  H         11.2110   20.9440    0.3520 H       1  UNL1        0.0733
     30  H          9.2340   21.4300    1.4290 H       1  UNL1        0.0301
     31  H         10.3910   22.1950    2.5140 H       1  UNL1        0.0301
     32  H         10.0080   24.2840    1.9730 H       1  UNL1        0.0266
     33  H          8.4220   23.6400    1.4700 H       1  UNL1        0.0266
     34  H          9.0960   24.0730   -0.9300 H       1  UNL1        0.0266
     35  H         10.3740   25.0910   -0.2180 H       1  UNL1        0.0266
     36  H         10.3750   22.2210   -1.4110 H       1  UNL1        0.0301
     37  H         11.8020   23.2480   -1.2090 H       1  UNL1        0.0301
@<TRIPOS>BOND
     1     1     6   ar
     2     1     2   ar
     3     2    10    1
     4     2     3   ar
     5     3     4   ar
     6     3    23    1
     7     4     5   ar
     8     4     7    1
     9     5     6   ar
    10     6    24    1
    11     7     8    2
    12     7     9    1
    13     9    25    1
    14    10    15   ar
    15    10    11   ar
    16    11    12   ar
    17    11    26    1
    18    12    13   ar
    19    12    27    1
    20    13    14   ar
    21    13    17    1
    22    14    16    1
    23    14    15   ar
    24    15    28    1
    25    17    18    1
    26    18    22    1
    27    18    19    1
    28    18    29    1
    29    19    20    1
    30    19    31    1
    31    19    30    1
    32    20    32    1
    33    20    21    1
    34    20    33    1
    35    21    35    1
    36    21    34    1
    37    21    22    1
    38    22    37    1
    39    22    36    1
