@<TRIPOS>MOLECULE
./DFT_K111__PAC_aligned.pdb
 22 23 0 0 0
SMALL
GASTEIGER

@<TRIPOS>ATOM
      1  N         18.2360   20.2070    2.1180 N.ar    1  UNL1       -0.2353
      2  C         17.5450   20.4640    0.9880 C.ar    1  UNL1        0.0764
      3  C         18.1870   20.3920   -0.2200 C.ar    1  UNL1       -0.0032
      4  CA        19.5640   19.9700   -0.1780 C.ar    1  UNL1        0.1511
      5  N         20.2330   19.6770    0.9460 N.ar    1  UNL1       -0.2288
      6  C         19.5360   19.9460    2.0270 C.ar    1  UNL1        0.1175
      7  C         20.2360   19.6920   -1.6120 C.2     1  UNL1        0.3554
      8  OXT       19.6690   19.9460   -2.6690 O.2     1  UNL1       -0.2434
      9  O         21.4360   19.2810   -1.6580 O.3     1  UNL1       -0.4761
     10  C         16.0740   20.5140    1.1610 C.ar    1  UNL1        0.0186
     11  C         15.5300   20.8700    2.3370 C.ar    1  UNL1       -0.0497
     12  C         14.1650   21.0780    2.4770 C.ar    1  UNL1       -0.0430
     13  C         13.3790   20.9270    1.3640 C.ar    1  UNL1        0.0276
     14  N         13.8220   20.3660    0.2340 N.ar    1  UNL1       -0.2626
     15  C         15.1590   20.1570    0.1420 C.ar    1  UNL1        0.0367
     16  H         17.6300   20.5700   -1.1360 H       1  UNL1        0.0662
     17  H         20.0180   19.6880    2.9680 H       1  UNL1        0.1047
     18  H         21.4530   19.0970   -2.6130 H       1  UNL1        0.2955
     19  H         16.1720   21.0340    3.1980 H       1  UNL1        0.0625
     20  H         13.7830   21.3680    3.4520 H       1  UNL1        0.0633
     21  H         12.3040   21.1020    1.3620 H       1  UNL1        0.0829
     22  H         15.4310   19.9810   -0.8980 H       1  UNL1        0.0836
@<TRIPOS>BOND
     1     1     6   ar
     2     1     2   ar
     3     2     3   ar
     4     2    10    1
     5     3     4   ar
     6     3    16    1
     7     4     5   ar
     8     4     7    1
     9     5     6   ar
    10     6    17    1
    11     7     9    1
    12     7     8    2
    13     9    18    1
    14    10    15   ar
    15    10    11   ar
    16    11    19    1
    17    11    12   ar
    18    12    13   ar
    19    12    20    1
    20    13    14   ar
    21    13    21    1
    22    14    15   ar
    23    15    22    1
