@<TRIPOS>MOLECULE
./DFT_K014__PAC_aligned.pdb
 26 28 0 0 0
SMALL
GASTEIGER

@<TRIPOS>ATOM
      1  N         18.2140   20.2420    2.1710 N.ar    1  UNL1       -0.2354
      2  C         17.5590   20.5190    1.0310 C.ar    1  UNL1        0.0750
      3  C         18.1980   20.3210   -0.2620 C.ar    1  UNL1       -0.0032
      4  CA        19.5960   19.9570   -0.2500 C.ar    1  UNL1        0.1511
      5  N         20.2340   19.7760    0.9200 N.ar    1  UNL1       -0.2288
      6  C         19.5000   19.8400    2.0710 C.ar    1  UNL1        0.1175
      7  C         20.4030   19.6970   -1.6050 C.2     1  UNL1        0.3554
      8  O         21.4070   19.0870   -1.7520 O.2     1  UNL1       -0.2434
      9  OXT       19.7180   20.0550   -2.7710 O.3     1  UNL1       -0.4761
     10  C         16.2950   21.2070    1.1390 C.ar    1  UNL1        0.0013
     11  C         16.1330   22.1940    2.1310 C.ar    1  UNL1       -0.0418
     12  C         14.8710   22.8110    2.2950 C.ar    1  UNL1        0.0207
     13  C         13.8260   22.6100    1.4780 C.ar    1  UNL1        0.1348
     14  C         13.9570   21.6120    0.5330 C.ar    1  UNL1       -0.0181
     15  C         15.1660   20.9380    0.3050 C.ar    1  UNL1       -0.0491
     16  O         12.6270   23.2650    1.8650 O.2     1  UNL1       -0.4629
     17  C         13.1440   23.9800    2.9230 C.ar    1  UNL1        0.0931
     18  C         14.4870   23.8580    3.1310 C.ar    1  UNL1       -0.0161
     19  H         17.7440   20.4880   -1.2350 H       1  UNL1        0.0662
     20  H         20.0440   19.5590    2.9700 H       1  UNL1        0.1047
     21  HXT       20.2210   19.5720   -3.4500 H       1  UNL1        0.2955
     22  H         16.9100   22.4500    2.8450 H       1  UNL1        0.0631
     23  H         13.1820   21.2520   -0.1360 H       1  UNL1        0.0655
     24  H         15.2220   20.2180   -0.5060 H       1  UNL1        0.0625
     25  H         12.3840   24.5090    3.4830 H       1  UNL1        0.1029
     26  H         15.1030   24.4050    3.8360 H       1  UNL1        0.0655
@<TRIPOS>BOND
     1     1     6   ar
     2     1     2   ar
     3     2    10    1
     4     2     3   ar
     5     3     4   ar
     6     3    19    1
     7     4     5   ar
     8     4     7    1
     9     5     6   ar
    10     6    20    1
    11     7     8    2
    12     7     9    1
    13     9    21    1
    14    10    11   ar
    15    10    15   ar
    16    11    22    1
    17    11    12   ar
    18    12    18   ar
    19    12    13   ar
    20    13    16   ar
    21    13    14   ar
    22    14    15   ar
    23    14    23    1
    24    15    24    1
    25    16    17   ar
    26    17    18   ar
    27    17    25    1
    28    18    26    1
