@<TRIPOS>MOLECULE
./DFT_K009__PAC_aligned.pdb
 26 27 0 0 0
SMALL
GASTEIGER

@<TRIPOS>ATOM
      1  N         18.1980   20.2020    2.1390 N.2     1  UNL1       -0.2575
      2  C         17.5970   20.5340    1.0330 C.3     1  UNL1        0.1271
      3  C         18.1970   20.3030   -0.2350 C.3     1  UNL1        0.0513
      4  CA        19.5700   19.9890   -0.2440 C.2     1  UNL1        0.1329
      5  N         20.2310   19.7300    0.9540 N.2     1  UNL1       -0.2333
      6  C         19.5080   19.8970    2.0330 C.2     1  UNL1        0.1123
      7  C         20.3710   19.8600   -1.5480 C.2     1  UNL1        0.3516
      8  O         21.5200   19.5670   -1.6320 O.2     1  UNL1       -0.2438
      9  OXT       19.8120   20.5200   -2.5290 O.3     1  UNL1       -0.4763
     10  C         16.0580   20.8310    1.1280 C.ar    1  UNL1       -0.0154
     11  C         15.5860   21.4420    2.3580 C.ar    1  UNL1       -0.0558
     12  C         14.3610   22.0690    2.4730 C.ar    1  UNL1       -0.0571
     13  C         13.4630   21.9940    1.4250 C.ar    1  UNL1       -0.0321
     14  C         13.8990   21.4590    0.2080 C.ar    1  UNL1        0.0442
     15  C         15.2380   20.9630    0.0000 C.ar    1  UNL1       -0.0375
     16 CL         12.8110   21.5930   -1.1310 Cl      1  UNL1       -0.0833
     17  C         12.0850   22.6500    1.6360 C.3     1  UNL1       -0.0383
     18  H         17.8210   20.6390   -1.1980 H       1  UNL1        0.0401
     19  H         19.9420   19.5370    2.9650 H       1  UNL1        0.1043
     20  HXT       20.3580   20.2880   -3.3010 H       1  UNL1        0.2954
     21  H         16.1960   21.3550    3.2520 H       1  UNL1        0.0621
     22  H         14.1290   22.5090    3.4370 H       1  UNL1        0.0621
     23  H         15.6420   20.7300   -0.9810 H       1  UNL1        0.0636
     24  H         12.2910   23.6460    2.0470 H       1  UNL1        0.0278
     25  H         11.5250   22.8990    0.7250 H       1  UNL1        0.0278
     26  H         11.4000   22.0990    2.2920 H       1  UNL1        0.0278
@<TRIPOS>BOND
     1     1     6    2
     2     1     2    1
     3     2     3    1
     4     2    10    1
     5     3     4    1
     6     3    18    1
     7     4     5    2
     8     4     7    1
     9     5     6    1
    10     6    19    1
    11     7     8    2
    12     7     9    1
    13     9    20    1
    14    10    11   ar
    15    10    15   ar
    16    11    21    1
    17    11    12   ar
    18    12    22    1
    19    12    13   ar
    20    13    14   ar
    21    13    17    1
    22    14    15   ar
    23    14    16    1
    24    15    23    1
    25    17    24    1
    26    17    26    1
    27    17    25    1
