@<TRIPOS>MOLECULE
./DFT_K054__PAC_aligned.pdb
 34 36 0 0 0
SMALL
GASTEIGER

@<TRIPOS>ATOM
      1  N         18.2270   20.2020    2.1650 N.2     1  UNL1       -0.2575
      2  C         17.6530   20.5790    1.0300 C.3     1  UNL1        0.1271
      3  C         18.1980   20.2260   -0.2790 C.3     1  UNL1        0.0513
      4  CA        19.5510   20.0290   -0.2400 C.2     1  UNL1        0.1329
      5  N         20.1860   19.7750    0.9500 N.2     1  UNL1       -0.2333
      6  C         19.4850   19.8450    2.0550 C.2     1  UNL1        0.1123
      7  C         20.3150   19.9130   -1.6240 C.2     1  UNL1        0.3516
      8  O         21.4830   19.5670   -1.7260 O.2     1  UNL1       -0.2438
      9  OXT       19.6670   20.3980   -2.7000 O.3     1  UNL1       -0.4763
     10  C         16.3150   21.1210    1.1250 C.ar    1  UNL1       -0.0152
     11  C         15.3950   20.7260    0.0870 C.ar    1  UNL1       -0.0526
     12  C         14.0420   21.2420    0.1610 C.ar    1  UNL1       -0.0181
     13  C         13.5770   21.9650    1.2820 C.ar    1  UNL1        0.1391
     14  C         14.5120   22.2760    2.2650 C.ar    1  UNL1        0.0829
     15  C         15.8360   21.8450    2.1900 C.ar    1  UNL1       -0.0342
     16 CL         14.0040   23.4550    3.5620 Cl      1  UNL1       -0.0797
     17  O         12.2810   22.5170    1.2850 O.3     1  UNL1       -0.4874
     18  C         11.1390   21.9320    0.6390 C.3     1  UNL1        0.1003
     19  C          9.8000   22.2460    1.3810 C.3     1  UNL1       -0.0157
     20  C         10.1260   21.0380    2.2470 C.3     1  UNL1       -0.0464
     21  C         10.9500   20.4430    1.0640 C.3     1  UNL1       -0.0157
     22  H         17.7170   20.4150   -1.2340 H       1  UNL1        0.0401
     23  H         19.9410   19.4470    2.9590 H       1  UNL1        0.1043
     24  HXT       20.3920   20.3690   -3.3490 H       1  UNL1        0.2954
     25  H         15.5680   19.9000   -0.5970 H       1  UNL1        0.0622
     26  H         13.3290   20.9690   -0.6120 H       1  UNL1        0.0655
     27  H         16.4470   22.1750    3.0250 H       1  UNL1        0.0637
     28  H         11.1100   22.0960   -0.4430 H       1  UNL1        0.0733
     29  H          9.6420   23.1900    1.9140 H       1  UNL1        0.0301
     30  H          8.7900   22.1210    0.9770 H       1  UNL1        0.0301
     31  H         10.6640   21.2490    3.1790 H       1  UNL1        0.0268
     32  H          9.3880   20.3440    2.6620 H       1  UNL1        0.0268
     33  H         10.3700   19.9610    0.2690 H       1  UNL1        0.0301
     34  H         11.9160   19.9430    1.1870 H       1  UNL1        0.0301
@<TRIPOS>BOND
     1     1     6    2
     2     1     2    1
     3     2     3    1
     4     2    10    1
     5     3    22    1
     6     3     4    1
     7     4     7    1
     8     4     5    2
     9     5     6    1
    10     6    23    1
    11     7     8    2
    12     7     9    1
    13     9    24    1
    14    10    11   ar
    15    10    15   ar
    16    11    25    1
    17    11    12   ar
    18    12    26    1
    19    12    13   ar
    20    13    17    1
    21    13    14   ar
    22    14    15   ar
    23    14    16    1
    24    15    27    1
    25    17    18    1
    26    18    21    1
    27    18    28    1
    28    18    19    1
    29    19    20    1
    30    19    30    1
    31    19    29    1
    32    20    21    1
    33    20    32    1
    34    20    31    1
    35    21    33    1
    36    21    34    1
