@<TRIPOS>MOLECULE
./DFT_K092__PAC_aligned.pdb
 43 45 0 0 0
SMALL
GASTEIGER

@<TRIPOS>ATOM
      1  O         12.0280   21.5470    1.1530 O.3     1  UNL1       -0.4892
      2  C         10.9650   20.8740    0.4590 C.3     1  UNL1        0.1023
      3  C          9.6840   21.1430    1.2730 C.3     1  UNL1        0.0333
      4  N          8.4100   20.5010    0.7850 N.3     1  UNL1       -0.2948
      5  C          7.9820   20.7700   -0.5890 C.3     1  UNL1        0.0225
      6  C          6.6560   20.1890   -0.9740 C.3     1  UNL1        0.0604
      7  O          5.5770   20.6070   -0.0350 O.3     1  UNL1       -0.3772
      8  C          5.9270   20.0520    1.2610 C.3     1  UNL1        0.0604
      9  C          7.2760   20.6960    1.7830 C.3     1  UNL1        0.0225
     10  C         13.4110   21.3020    1.0190 C.ar    1  UNL1        0.1388
     11  C         13.9130   20.3440    0.0420 C.ar    1  UNL1       -0.0179
     12  C         15.2540   20.0250    0.1120 C.ar    1  UNL1       -0.0490
     13  C         16.1250   20.7050    1.0200 C.ar    1  UNL1        0.0021
     14  C         17.5540   20.4180    0.9780 C.ar    1  UNL1        0.0750
     15  N         18.2520   20.2640    2.1740 N.ar    1  UNL1       -0.2354
     16  C         19.5150   19.9020    2.0680 C.ar    1  UNL1        0.1175
     17  N         20.2210   19.6880    0.9380 N.ar    1  UNL1       -0.2288
     18  CA        19.5520   19.9890   -0.2220 C.ar    1  UNL1        0.1511
     19  C         18.2070   20.3940   -0.2560 C.ar    1  UNL1       -0.0032
     20  C         20.3050   19.7530   -1.5450 C.2     1  UNL1        0.3554
     21  O         19.9470   20.2430   -2.6060 O.2     1  UNL1       -0.2434
     22  OXT       21.4840   18.9920   -1.5140 O.3     1  UNL1       -0.4761
     23  C         15.6300   21.6720    1.8490 C.ar    1  UNL1       -0.0306
     24  C         14.2790   22.0170    1.8870 C.ar    1  UNL1        0.0831
     25 CL         13.7270   23.0760    3.1940 Cl      1  UNL1       -0.0797
     26  H         10.9660   21.3280   -0.5390 H       1  UNL1        0.0709
     27  H         10.9800   19.7780    0.5030 H       1  UNL1        0.0709
     28  H          9.9600   20.7970    2.2770 H       1  UNL1        0.0460
     29  H          9.5160   22.2250    1.2110 H       1  UNL1        0.0460
     30  H          8.7350   20.3190   -1.2480 H       1  UNL1        0.0449
     31  H          7.8460   21.8370   -0.8020 H       1  UNL1        0.0449
     32  H          6.8530   19.1110   -0.9120 H       1  UNL1        0.0572
     33  H          6.3790   20.5160   -1.9830 H       1  UNL1        0.0572
     34  H          5.9350   18.9630    1.1270 H       1  UNL1        0.0572
     35  H          5.1360   20.1530    2.0140 H       1  UNL1        0.0572
     36  H          7.4640   20.2710    2.7760 H       1  UNL1        0.0449
     37  H          7.0290   21.7620    1.8680 H       1  UNL1        0.0449
     38  H         13.2460   19.9090   -0.6970 H       1  UNL1        0.0655
     39  H         15.6950   19.2560   -0.5150 H       1  UNL1        0.0625
     40  H         20.0000   19.5960    2.9920 H       1  UNL1        0.1047
     41  H         17.7310   20.5680   -1.2160 H       1  UNL1        0.0662
     42  HXT       21.8100   19.1100   -2.4230 H       1  UNL1        0.2955
     43  H         16.2610   22.2650    2.5040 H       1  UNL1        0.0640
@<TRIPOS>BOND
     1     1    10    1
     2     1     2    1
     3     2     3    1
     4     2    26    1
     5     2    27    1
     6     3    29    1
     7     3    28    1
     8     3     4    1
     9     4     9    1
    10     4     5    1
    11     5    31    1
    12     5    30    1
    13     5     6    1
    14     6     7    1
    15     6    33    1
    16     6    32    1
    17     7     8    1
    18     8     9    1
    19     8    35    1
    20     8    34    1
    21     9    37    1
    22     9    36    1
    23    10    24   ar
    24    10    11   ar
    25    11    12   ar
    26    11    38    1
    27    12    13   ar
    28    12    39    1
    29    13    23   ar
    30    13    14    1
    31    14    15   ar
    32    14    19   ar
    33    15    16   ar
    34    16    40    1
    35    16    17   ar
    36    17    18   ar
    37    18    19   ar
    38    18    20    1
    39    19    41    1
    40    20    21    2
    41    20    22    1
    42    22    42    1
    43    23    43    1
    44    23    24   ar
    45    24    25    1
