@<TRIPOS>MOLECULE
./DFT_K012__PAC_aligned.pdb
 27 28 0 0 0
SMALL
GASTEIGER

@<TRIPOS>ATOM
      1  N         18.2240   20.1580    2.1440 N.2     1  UNL1       -0.2575
      2  C         17.5670   20.6050    0.9920 C.3     1  UNL1        0.1271
      3  C         18.1800   20.2690   -0.2330 C.3     1  UNL1        0.0513
      4  CA        19.5830   19.9880   -0.2160 C.2     1  UNL1        0.1329
      5  N         20.2220   19.7520    0.9280 N.2     1  UNL1       -0.2333
      6  C         19.5240   19.8830    2.0640 C.2     1  UNL1        0.1123
      7  C         20.4380   19.8940   -1.4450 C.2     1  UNL1        0.3516
      8  O         21.5570   19.3050   -1.5540 O.2     1  UNL1       -0.2438
      9  OXT       19.9880   20.4620   -2.5610 O.3     1  UNL1       -0.4763
     10  C         16.1880   21.1800    1.0940 C.ar    1  UNL1       -0.0152
     11  C         15.6120   21.9220    0.0150 C.ar    1  UNL1       -0.0526
     12  C         14.3520   22.5300    0.1460 C.ar    1  UNL1       -0.0182
     13  C         13.6590   22.4050    1.3580 C.ar    1  UNL1        0.1383
     14  C         14.1870   21.6430    2.3820 C.ar    1  UNL1        0.0828
     15  C         15.4280   21.0190    2.2410 C.ar    1  UNL1       -0.0342
     16 CL         13.2080   21.4530    3.8560 Cl      1  UNL1       -0.0797
     17  O         12.3700   22.9260    1.4410 O.3     1  UNL1       -0.4937
     18  C         11.7960   23.8740    0.4790 C.3     1  UNL1        0.0789
     19  H         17.6810   20.4360   -1.1820 H       1  UNL1        0.0401
     20  H         20.1110   19.5680    2.9250 H       1  UNL1        0.1043
     21  HXT       20.6240   20.2850   -3.2750 H       1  UNL1        0.2954
     22  H         16.0940   22.0690   -0.9470 H       1  UNL1        0.0622
     23  H         14.0440   23.1420   -0.6970 H       1  UNL1        0.0655
     24  H         15.7980   20.3970    3.0510 H       1  UNL1        0.0637
     25  H         11.6210   23.4280   -0.5070 H       1  UNL1        0.0660
     26  H         12.3010   24.8480    0.4380 H       1  UNL1        0.0660
     27  H         10.8140   24.1640    0.8720 H       1  UNL1        0.0660
@<TRIPOS>BOND
     1     1     6    2
     2     1     2    1
     3     2    10    1
     4     2     3    1
     5     3     4    1
     6     3    19    1
     7     4     5    2
     8     4     7    1
     9     5     6    1
    10     6    20    1
    11     7     8    2
    12     7     9    1
    13     9    21    1
    14    10    15   ar
    15    10    11   ar
    16    11    12   ar
    17    11    22    1
    18    12    13   ar
    19    12    23    1
    20    13    14   ar
    21    13    17    1
    22    14    16    1
    23    14    15   ar
    24    15    24    1
    25    17    18    1
    26    18    27    1
    27    18    25    1
    28    18    26    1
