@<TRIPOS>MOLECULE
./DFT_K053__PAC_aligned.pdb
 26 27 0 0 0
SMALL
GASTEIGER

@<TRIPOS>ATOM
      1  N         18.2250   20.2890    2.1540 N.ar    1  UNL1       -0.2323
      2  C         17.6030   20.4550    1.0300 C.ar    1  UNL1        0.0753
      3  C         18.2490   20.3000   -0.2370 C.ar    1  UNL1       -0.0032
      4  CA        19.5640   20.0360   -0.2560 C.ar    1  UNL1        0.1514
      5  N         20.1400   19.7220    0.9530 N.ar    1  UNL1       -0.2257
      6  C         19.5200   19.8540    2.0360 C.ar    1  UNL1        0.1275
      7  C         20.2680   19.4990    3.2720 C.3     1  UNL1       -0.0046
      8  C         20.2690   19.8910   -1.5990 C.2     1  UNL1        0.3554
      9  OXT       19.6960   20.0810   -2.6370 O.2     1  UNL1       -0.2434
     10  O         21.5560   19.7120   -1.5720 O.3     1  UNL1       -0.4761
     11  C         16.1700   20.7080    1.0240 C.ar    1  UNL1        0.0019
     12  C         15.6790   21.7690    1.8760 C.ar    1  UNL1       -0.0511
     13  C         14.2810   21.9790    1.8420 C.ar    1  UNL1       -0.0413
     14  C         13.4440   21.3400    0.9450 C.ar    1  UNL1        0.0593
     15  C         13.9210   20.3990    0.1010 C.ar    1  UNL1        0.0599
     16  C         15.2730   20.0500    0.1230 C.ar    1  UNL1       -0.0328
     17 CL         12.9080   19.7070   -1.1240 Cl      1  UNL1       -0.0820
     18 CL         11.7220   21.7370    0.8260 Cl      1  UNL1       -0.0820
     19  H         17.6980   20.5810   -1.1290 H       1  UNL1        0.0662
     20  H         19.8020   19.9500    4.1570 H       1  UNL1        0.0308
     21  H         21.2930   19.8870    3.2350 H       1  UNL1        0.0308
     22  H         20.2870   18.4130    3.4250 H       1  UNL1        0.0308
     23  H         21.7570   19.8130   -2.5190 H       1  UNL1        0.2955
     24  H         16.3700   22.3630    2.4660 H       1  UNL1        0.0625
     25  H         13.8220   22.7420    2.4640 H       1  UNL1        0.0633
     26  H         15.5730   19.3250   -0.6260 H       1  UNL1        0.0639
@<TRIPOS>BOND
     1     1     6   ar
     2     1     2   ar
     3     2    11    1
     4     2     3   ar
     5     3     4   ar
     6     3    19    1
     7     4     5   ar
     8     4     8    1
     9     5     6   ar
    10     6     7    1
    11     7    20    1
    12     7    21    1
    13     7    22    1
    14     8    10    1
    15     8     9    2
    16    10    23    1
    17    11    12   ar
    18    11    16   ar
    19    12    24    1
    20    12    13   ar
    21    13    25    1
    22    13    14   ar
    23    14    18    1
    24    14    15   ar
    25    15    16   ar
    26    15    17    1
    27    16    26    1
