@<TRIPOS>MOLECULE
./DFT_K124__PAC_aligned.pdb
 21 22 0 0 0
SMALL
GASTEIGER

@<TRIPOS>ATOM
      1  N         18.2290   20.2290    2.1690 N.ar    1  UNL1       -0.2353
      2  C         17.5800   20.4720    1.0010 C.ar    1  UNL1        0.0754
      3  C         18.2410   20.3510   -0.2210 C.ar    1  UNL1        0.0003
      4  C         19.5570   19.9740   -0.2420 C.ar    1  UNL1        0.1438
      5  N         20.2040   19.7280    0.9140 N.ar    1  UNL1       -0.2250
      6  C         19.4900   19.9020    2.0600 C.ar    1  UNL1        0.1180
      7  C         20.4800   20.1020   -1.3840 C.1     1  UNL1        0.1192
      8  N         21.1720   20.1840   -2.3120 N.1     1  UNL1       -0.1893
      9  C         16.0930   20.8810    1.1560 C.ar    1  UNL1        0.0019
     10  C         15.2470   20.6900    0.0700 C.ar    1  UNL1       -0.0511
     11  C         13.9540   21.2360    0.0580 C.ar    1  UNL1       -0.0413
     12  C         13.4990   22.0000    1.1220 C.ar    1  UNL1        0.0593
     13  C         14.3260   22.2140    2.2860 C.ar    1  UNL1        0.0599
     14  C         15.6590   21.5850    2.2610 C.ar    1  UNL1       -0.0328
     15 CL         13.8800   23.1130    3.6150 Cl      1  UNL1       -0.0820
     16 CL         11.8690   22.5100    1.1780 Cl      1  UNL1       -0.0820
     17  H         17.8340   20.6940   -1.1670 H       1  UNL1        0.0667
     18  H         20.0360   19.7100    2.9810 H       1  UNL1        0.1047
     19  H         15.7100   20.1920   -0.7770 H       1  UNL1        0.0625
     20  H         13.3830   21.1540   -0.8630 H       1  UNL1        0.0633
     21  H         16.3430   21.7390    3.0900 H       1  UNL1        0.0639
@<TRIPOS>BOND
     1     1     6   ar
     2     1     2   ar
     3     2     3   ar
     4     2     9    1
     5     3     4   ar
     6     3    17    1
     7     4     7    1
     8     4     5   ar
     9     5     6   ar
    10     6    18    1
    11     7     8    3
    12     9    14   ar
    13     9    10   ar
    14    10    19    1
    15    10    11   ar
    16    11    12   ar
    17    11    20    1
    18    12    13   ar
    19    12    16    1
    20    13    14   ar
    21    13    15    1
    22    14    21    1
