@<TRIPOS>MOLECULE
./DFT_K044__PAC_aligned.pdb
 33 34 0 0 0
SMALL
GASTEIGER

@<TRIPOS>ATOM
      1  N         18.2570   20.2130    2.1290 N.ar    1  UNL1       -0.2354
      2  C         17.5630   20.4870    0.9960 C.ar    1  UNL1        0.0750
      3  C         18.2090   20.3530   -0.2320 C.ar    1  UNL1       -0.0032
      4  CA        19.5470   19.9770   -0.2150 C.ar    1  UNL1        0.1511
      5  N         20.2200   19.7190    0.9480 N.ar    1  UNL1       -0.2288
      6  C         19.5050   19.9050    2.0540 C.ar    1  UNL1        0.1175
      7  C         20.3790   19.9970   -1.5090 C.2     1  UNL1        0.3554
      8  O         21.3730   19.3680   -1.7700 O.2     1  UNL1       -0.2434
      9  OXT       19.9160   20.8310   -2.5010 O.3     1  UNL1       -0.4761
     10  C         16.2280   21.1070    1.2600 C.ar    1  UNL1        0.0021
     11  C         15.2820   21.1740    0.2770 C.ar    1  UNL1       -0.0490
     12  C         14.0110   21.6900    0.4940 C.ar    1  UNL1       -0.0178
     13  C         13.7670   22.3600    1.7100 C.ar    1  UNL1        0.1391
     14  C         14.7780   22.4770    2.6720 C.ar    1  UNL1        0.0832
     15  C         16.0660   22.0160    2.4230 C.ar    1  UNL1       -0.0306
     16 CL         14.5700   23.4180    4.1680 Cl      1  UNL1       -0.0797
     17  O         12.5000   22.7820    2.0230 O.3     1  UNL1       -0.4879
     18  C         11.7610   23.5300    1.0900 C.3     1  UNL1        0.0947
     19  C         12.6730   24.7570    0.7370 C.3     1  UNL1       -0.0281
     20  C         10.4050   23.8980    1.7180 C.3     1  UNL1       -0.0281
     21  H         17.6430   20.5830   -1.1300 H       1  UNL1        0.0662
     22  H         19.9920   19.7630    3.0170 H       1  UNL1        0.1047
     23  HXT       20.6640   20.8450   -3.1230 H       1  UNL1        0.2955
     24  H         15.5090   20.6030   -0.6180 H       1  UNL1        0.0625
     25  H         13.1680   21.5400   -0.1730 H       1  UNL1        0.0655
     26  H         16.8850   22.1540    3.1230 H       1  UNL1        0.0640
     27  H         11.6390   23.0810    0.0970 H       1  UNL1        0.0727
     28  H         13.5540   24.4940    0.1380 H       1  UNL1        0.0265
     29  H         13.2170   25.1700    1.5960 H       1  UNL1        0.0265
     30  H         12.0530   25.4870    0.2000 H       1  UNL1        0.0265
     31  H         10.5150   24.5460    2.5960 H       1  UNL1        0.0265
     32  H          9.7680   23.0150    1.8450 H       1  UNL1        0.0265
     33  H          9.6840   24.3560    1.0300 H       1  UNL1        0.0265
@<TRIPOS>BOND
     1     1     2   ar
     2     1     6   ar
     3     2     3   ar
     4     2    10    1
     5     3    21    1
     6     3     4   ar
     7     4     7    1
     8     4     5   ar
     9     5     6   ar
    10     6    22    1
    11     7     8    2
    12     7     9    1
    13     9    23    1
    14    10    11   ar
    15    10    15   ar
    16    11    24    1
    17    11    12   ar
    18    12    25    1
    19    12    13   ar
    20    13    14   ar
    21    13    17    1
    22    14    15   ar
    23    14    16    1
    24    15    26    1
    25    17    18    1
    26    18    27    1
    27    18    19    1
    28    18    20    1
    29    19    28    1
    30    19    30    1
    31    19    29    1
    32    20    32    1
    33    20    33    1
    34    20    31    1
