@<TRIPOS>MOLECULE
./DFT_K063__PAC_aligned.pdb
 26 27 0 0 0
SMALL
GASTEIGER

@<TRIPOS>ATOM
      1  N         18.2330   20.2170    2.1220 N.ar    1  UNL1       -0.2354
      2  C         17.5420   20.4700    0.9990 C.ar    1  UNL1        0.0750
      3  C         18.2240   20.3790   -0.2360 C.ar    1  UNL1       -0.0032
      4  CA        19.5470   19.9690   -0.2150 C.ar    1  UNL1        0.1511
      5  N         20.2100   19.7010    0.9310 N.ar    1  UNL1       -0.2288
      6  C         19.5460   19.9200    2.0790 C.ar    1  UNL1        0.1175
      7  C         20.1660   19.7110   -1.5610 C.2     1  UNL1        0.3554
      8  O         19.5820   19.8650   -2.6270 O.2     1  UNL1       -0.2434
      9  OXT       21.4860   19.4710   -1.5630 O.3     1  UNL1       -0.4761
     10  C         16.0540   20.7440    1.1440 C.ar    1  UNL1        0.0007
     11  C         15.5440   21.2500    2.4230 C.ar    1  UNL1       -0.0525
     12  C         14.1720   21.4500    2.5690 C.ar    1  UNL1       -0.0609
     13  C         13.2620   21.2330    1.4890 C.ar    1  UNL1       -0.0588
     14  C         13.7670   20.9790    0.2230 C.ar    1  UNL1       -0.0498
     15  C         15.1450   20.6730    0.0390 C.ar    1  UNL1       -0.0496
     16  C         12.7550   20.8130   -0.8920 C.3     1  UNL1       -0.0397
     17  H         17.7300   20.6090   -1.1750 H       1  UNL1        0.0662
     18  H         19.9750   19.6980    3.0540 H       1  UNL1        0.1047
     19  HXT       21.7120   19.2630   -2.4860 H       1  UNL1        0.2955
     20  H         16.2870   21.4120    3.1970 H       1  UNL1        0.0624
     21  H         13.7740   21.6770    3.5540 H       1  UNL1        0.0618
     22  H         12.2090   21.2780    1.7530 H       1  UNL1        0.0620
     23  H         15.4760   20.2350   -0.8980 H       1  UNL1        0.0627
     24  H         13.0000   19.9130   -1.4690 H       1  UNL1        0.0278
     25  H         13.0310   21.6210   -1.5790 H       1  UNL1        0.0278
     26  H         11.6850   20.8170   -0.6430 H       1  UNL1        0.0278
@<TRIPOS>BOND
     1     1     2   ar
     2     1     6   ar
     3     2    10    1
     4     2     3   ar
     5     3    17    1
     6     3     4   ar
     7     4     7    1
     8     4     5   ar
     9     5     6   ar
    10     6    18    1
    11     7     8    2
    12     7     9    1
    13     9    19    1
    14    10    15   ar
    15    10    11   ar
    16    11    12   ar
    17    11    20    1
    18    12    13   ar
    19    12    21    1
    20    13    22    1
    21    13    14   ar
    22    14    16    1
    23    14    15   ar
    24    15    23    1
    25    16    26    1
    26    16    24    1
    27    16    25    1
