@<TRIPOS>MOLECULE
./DFT_K008__PAC_aligned.pdb
 23 24 0 0 0
SMALL
GASTEIGER

@<TRIPOS>ATOM
      1  N         18.2290   20.3210    2.1670 N.ar    1  UNL1       -0.2354
      2  C         17.5990   20.4340    1.0090 C.ar    1  UNL1        0.0750
      3  C         18.2330   20.3130   -0.2290 C.ar    1  UNL1       -0.0032
      4  CA        19.5570   20.0290   -0.2350 C.ar    1  UNL1        0.1511
      5  N         20.2070   19.7330    0.9100 N.ar    1  UNL1       -0.2288
      6  C         19.4750   19.8250    2.0580 C.ar    1  UNL1        0.1175
      7  C         20.3460   19.9910   -1.5660 C.2     1  UNL1        0.3554
      8  O         19.8710   20.1550   -2.7100 O.2     1  UNL1       -0.2434
      9  OXT       21.6760   20.1830   -1.4110 O.3     1  UNL1       -0.4761
     10  C         16.0760   20.4540    1.1960 C.ar    1  UNL1        0.0019
     11  C         15.2320   19.9410    0.2000 C.ar    1  UNL1       -0.0511
     12  C         13.8230   19.9830    0.3550 C.ar    1  UNL1       -0.0413
     13  C         13.2320   20.4580    1.5110 C.ar    1  UNL1        0.0593
     14  C         14.0800   20.9710    2.5470 C.ar    1  UNL1        0.0599
     15  C         15.4570   21.1190    2.3150 C.ar    1  UNL1       -0.0328
     16 CL         13.3820   21.7470    4.0030 Cl      1  UNL1       -0.0820
     17 CL         11.3780   20.5330    1.6250 Cl      1  UNL1       -0.0820
     18  H         17.6360   20.4650   -1.1220 H       1  UNL1        0.0662
     19  H         19.8600   19.2670    2.9100 H       1  UNL1        0.1047
     20  HXT       21.8960   20.6610   -2.2280 H       1  UNL1        0.2955
     21  H         15.6190   19.4810   -0.7050 H       1  UNL1        0.0625
     22  H         13.2850   19.6220   -0.5170 H       1  UNL1        0.0633
     23  H         16.0810   21.6420    3.0330 H       1  UNL1        0.0639
@<TRIPOS>BOND
     1     1     2   ar
     2     1     6   ar
     3     2     3   ar
     4     2    10    1
     5     3    18    1
     6     3     4   ar
     7     4     7    1
     8     4     5   ar
     9     5     6   ar
    10     6    19    1
    11     7     8    2
    12     7     9    1
    13     9    20    1
    14    10    11   ar
    15    10    15   ar
    16    11    21    1
    17    11    12   ar
    18    12    22    1
    19    12    13   ar
    20    13    17    1
    21    13    14   ar
    22    14    15   ar
    23    14    16    1
    24    15    23    1
