@<TRIPOS>MOLECULE
./DFT_K065__PAC_aligned.pdb
 23 24 0 0 0
SMALL
GASTEIGER

@<TRIPOS>ATOM
      1  N         18.2390   20.2680    2.1340 N.ar    1  UNL1       -0.2354
      2  C         17.5240   20.4810    1.0030 C.ar    1  UNL1        0.0750
      3  C         18.2320   20.3190   -0.2150 C.ar    1  UNL1       -0.0032
      4  CA        19.5810   20.0170   -0.2030 C.ar    1  UNL1        0.1511
      5  N         20.1950   19.7030    0.9170 N.ar    1  UNL1       -0.2288
      6  C         19.5300   19.8670    2.0440 C.ar    1  UNL1        0.1175
      7  C         20.3280   19.9030   -1.5440 C.2     1  UNL1        0.3554
      8  O         19.7480   20.0040   -2.6470 O.2     1  UNL1       -0.2434
      9  OXT       21.6900   19.5580   -1.5880 O.3     1  UNL1       -0.4761
     10  C         16.0900   20.9160    1.1190 C.ar    1  UNL1        0.0032
     11  C         15.2690   20.5840    2.2520 C.ar    1  UNL1       -0.0341
     12  C         13.8770   20.9460    2.3480 C.ar    1  UNL1        0.0430
     13  C         13.2950   21.6130    1.2640 C.ar    1  UNL1       -0.0250
     14  C         14.0620   21.9460    0.1290 C.ar    1  UNL1        0.0430
     15  C         15.4110   21.6620    0.0800 C.ar    1  UNL1       -0.0341
     16 CL         13.2740   22.7090   -1.1960 Cl      1  UNL1       -0.0835
     17 CL         12.9780   20.6110    3.8130 Cl      1  UNL1       -0.0835
     18  H         17.6850   20.5630   -1.1210 H       1  UNL1        0.0662
     19  H         20.0410   19.5710    2.9580 H       1  UNL1        0.1047
     20  HXT       22.0560   19.7700   -2.4640 H       1  UNL1        0.2955
     21  H         15.7750   19.9880    3.0050 H       1  UNL1        0.0639
     22  H         12.2290   21.7950    1.3640 H       1  UNL1        0.0647
     23  H         15.9530   22.0310   -0.7850 H       1  UNL1        0.0639
@<TRIPOS>BOND
     1     1     2   ar
     2     1     6   ar
     3     2    10    1
     4     2     3   ar
     5     3    18    1
     6     3     4   ar
     7     4     7    1
     8     4     5   ar
     9     5     6   ar
    10     6    19    1
    11     7     8    2
    12     7     9    1
    13     9    20    1
    14    10    15   ar
    15    10    11   ar
    16    11    12   ar
    17    11    21    1
    18    12    13   ar
    19    12    17    1
    20    13    22    1
    21    13    14   ar
    22    14    16    1
    23    14    15   ar
    24    15    23    1
