@<TRIPOS>MOLECULE
./DFT_K001__PAC_aligned.pdb
 23 24 0 0 0
SMALL
GASTEIGER

@<TRIPOS>ATOM
      1  N         18.2300   20.1860    2.1440 N.2     1  UNL1       -0.2574
      2  C         17.6100   20.5870    0.9940 C.3     1  UNL1        0.1298
      3  C         18.1680   20.2700   -0.2560 C.3     1  UNL1        0.0514
      4  CA        19.5700   19.9770   -0.2160 C.2     1  UNL1        0.1329
      5  N         20.2040   19.7980    0.9350 N.2     1  UNL1       -0.2333
      6  C         19.5190   19.8370    2.0790 C.2     1  UNL1        0.1123
      7  C         20.4510   20.1050   -1.4560 C.2     1  UNL1        0.3516
      8  O         20.0420   20.7700   -2.4360 O.2     1  UNL1       -0.2438
      9  OXT       21.7630   19.8160   -1.2970 O.3     1  UNL1       -0.4763
     10  C         16.1560   21.0070    1.0910 C.ar    1  UNL1        0.0199
     11  C         15.2410   20.7280    0.0280 C.ar    1  UNL1       -0.0533
     12  C         13.8920   21.0790    0.1250 C.ar    1  UNL1       -0.0599
     13  C         13.4030   21.7930    1.2520 C.ar    1  UNL1       -0.0406
     14  C         14.2400   22.1110    2.3130 C.ar    1  UNL1        0.0764
     15  C         15.6180   21.6640    2.2690 C.ar    1  UNL1        0.1472
     16  F         16.4430   22.1310    3.2670 F       1  UNL1       -0.2036
     17 CL         13.6370   23.2230    3.5450 Cl      1  UNL1       -0.0806
     18  H         17.6010   20.4740   -1.1590 H       1  UNL1        0.0401
     19  H         19.9970   19.6220    3.0320 H       1  UNL1        0.1043
     20  HXT       22.2350   20.0350   -2.1200 H       1  UNL1        0.2954
     21  H         15.5970   20.1260   -0.8030 H       1  UNL1        0.0622
     22  H         13.2900   20.8220   -0.7420 H       1  UNL1        0.0618
     23  H         12.3670   22.1110    1.3180 H       1  UNL1        0.0633
@<TRIPOS>BOND
     1     1     2    1
     2     1     6    2
     3     2     3    1
     4     2    10    1
     5     3    18    1
     6     3     4    1
     7     4     7    1
     8     4     5    2
     9     5     6    1
    10     6    19    1
    11     7     8    2
    12     7     9    1
    13     9    20    1
    14    10    11   ar
    15    10    15   ar
    16    11    21    1
    17    11    12   ar
    18    12    22    1
    19    12    13   ar
    20    13    23    1
    21    13    14   ar
    22    14    15   ar
    23    14    17    1
    24    15    16    1
