@<TRIPOS>MOLECULE
./DFT_K020__PAC_aligned.pdb
 32 34 0 0 0
SMALL
GASTEIGER

@<TRIPOS>ATOM
      1  N         18.2130   20.2090    2.1300 N.ar    1  UNL1       -0.2354
      2  C         17.5510   20.5020    1.0270 C.ar    1  UNL1        0.0750
      3  C         18.2220   20.3840   -0.2210 C.ar    1  UNL1       -0.0032
      4  CA        19.5490   19.8930   -0.2270 C.ar    1  UNL1        0.1511
      5  N         20.2700   19.7870    0.9410 N.ar    1  UNL1       -0.2288
      6  C         19.4960   19.8810    2.0300 C.ar    1  UNL1        0.1175
      7  C         20.2610   19.6620   -1.6030 C.2     1  UNL1        0.3554
      8  O         19.9240   20.3080   -2.5740 O.2     1  UNL1       -0.2434
      9  OXT       21.5360   19.2950   -1.4950 O.3     1  UNL1       -0.4761
     10  C         16.2160   21.1390    1.2160 C.ar    1  UNL1        0.0021
     11  C         15.5440   21.2120    2.4650 C.ar    1  UNL1       -0.0490
     12  C         14.2570   21.8250    2.6200 C.ar    1  UNL1       -0.0178
     13  C         13.6150   22.3510    1.5310 C.ar    1  UNL1        0.1394
     14  C         14.3050   22.4030    0.2940 C.ar    1  UNL1        0.0832
     15  C         15.5510   21.8790    0.1480 C.ar    1  UNL1       -0.0306
     16 CL         13.5630   23.3710   -0.9730 Cl      1  UNL1       -0.0797
     17  O         12.3810   22.8890    1.6360 O.3     1  UNL1       -0.4828
     18  C         11.5930   23.0440    2.8410 C.3     1  UNL1        0.1465
     19  C         10.9200   21.7860    3.4850 C.3     1  UNL1        0.0869
     20  O          9.7930   22.6710    3.7300 O.3     1  UNL1       -0.3723
     21  C         10.1590   23.6010    2.6880 C.3     1  UNL1        0.0869
     22  H         17.6440   20.6890   -1.0880 H       1  UNL1        0.0662
     23  H         20.0250   19.7110    2.9660 H       1  UNL1        0.1047
     24  HXT       21.8440   19.6540   -2.3440 H       1  UNL1        0.2955
     25  H         16.0760   20.7730    3.3040 H       1  UNL1        0.0625
     26  H         13.8890   21.8620    3.6410 H       1  UNL1        0.0655
     27  H         16.1250   22.1710   -0.7260 H       1  UNL1        0.0640
     28  H         12.1830   23.5710    3.5980 H       1  UNL1        0.0780
     29  H         11.4400   21.4120    4.3730 H       1  UNL1        0.0597
     30  H         10.6450   20.9910    2.7840 H       1  UNL1        0.0597
     31  H          9.5190   23.4320    1.8150 H       1  UNL1        0.0597
     32  H         10.0050   24.6460    2.9740 H       1  UNL1        0.0597
@<TRIPOS>BOND
     1     1     2   ar
     2     1     6   ar
     3     2     3   ar
     4     2    10    1
     5     3    22    1
     6     3     4   ar
     7     4     7    1
     8     4     5   ar
     9     5     6   ar
    10     6    23    1
    11     7     8    2
    12     7     9    1
    13     9    24    1
    14    10    15   ar
    15    10    11   ar
    16    11    12   ar
    17    11    25    1
    18    12    13   ar
    19    12    26    1
    20    13    14   ar
    21    13    17    1
    22    14    16    1
    23    14    15   ar
    24    15    27    1
    25    17    18    1
    26    18    21    1
    27    18    28    1
    28    18    19    1
    29    19    20    1
    30    19    30    1
    31    19    29    1
    32    20    21    1
    33    21    32    1
    34    21    31    1
