@<TRIPOS>MOLECULE
./DFT_K080__PAC_aligned.pdb
 23 24 0 0 0
SMALL
GASTEIGER

@<TRIPOS>ATOM
      1  N         18.2200   20.2170    2.1430 N.ar    1  UNL1       -0.2354
      2  C         17.5250   20.5020    1.0160 C.ar    1  UNL1        0.0749
      3  C         18.2250   20.3420   -0.2150 C.ar    1  UNL1       -0.0032
      4  CA        19.5890   19.9760   -0.1980 C.ar    1  UNL1        0.1511
      5  N         20.2210   19.7030    0.9170 N.ar    1  UNL1       -0.2288
      6  C         19.5210   19.9150    2.0180 C.ar    1  UNL1        0.1175
      7  C         20.4520   20.1550   -1.5240 C.2     1  UNL1        0.3554
      8  O         20.1170   20.5910   -2.6100 O.2     1  UNL1       -0.2434
      9  OXT       21.6480   19.5990   -1.4620 O.3     1  UNL1       -0.4761
     10  C         16.1270   20.9810    1.0990 C.ar    1  UNL1        0.0005
     11  C         15.2250   20.2630    1.8370 C.ar    1  UNL1       -0.0526
     12  C         13.8730   20.6080    1.7330 C.ar    1  UNL1       -0.0611
     13  C         13.4360   21.5740    0.8380 C.ar    1  UNL1       -0.0617
     14  C         14.3870   22.3810    0.0980 C.ar    1  UNL1       -0.0611
     15  C         15.7520   22.0780    0.2620 C.ar    1  UNL1       -0.0526
     16  H         17.6860   20.6220   -1.1150 H       1  UNL1        0.0662
     17  H         19.9820   19.6930    2.9780 H       1  UNL1        0.1047
     18  HXT       21.8540   19.5090   -2.4080 H       1  UNL1        0.2955
     19  H         15.5470   19.3670    2.3600 H       1  UNL1        0.0624
     20  H         13.1350   20.0720    2.3240 H       1  UNL1        0.0618
     21  H         12.3750   21.7830    0.7260 H       1  UNL1        0.0618
     22  H         14.0920   23.2170   -0.5290 H       1  UNL1        0.0618
     23  H         16.5270   22.5300   -0.3490 H       1  UNL1        0.0624
@<TRIPOS>BOND
     1     1     2   ar
     2     1     6   ar
     3     2     3   ar
     4     2    10    1
     5     3    16    1
     6     3     4   ar
     7     4     7    1
     8     4     5   ar
     9     5     6   ar
    10     6    17    1
    11     7     8    2
    12     7     9    1
    13     9    18    1
    14    10    11   ar
    15    10    15   ar
    16    11    12   ar
    17    11    19    1
    18    12    13   ar
    19    12    20    1
    20    13    21    1
    21    13    14   ar
    22    14    22    1
    23    14    15   ar
    24    15    23    1
