@<TRIPOS>MOLECULE
./DFT_K011__PAC_aligned.pdb
 23 24 0 0 0
SMALL
GASTEIGER

@<TRIPOS>ATOM
      1  N         18.2120   20.3430    2.1690 N.ar    1  UNL1       -0.2354
      2  C         17.5890   20.4020    0.9820 C.ar    1  UNL1        0.0750
      3  C         18.1900   20.3570   -0.2460 C.ar    1  UNL1       -0.0032
      4  CA        19.5610   20.0150   -0.2400 C.ar    1  UNL1        0.1511
      5  N         20.2150   19.7280    0.9370 N.ar    1  UNL1       -0.2288
      6  C         19.5330   19.8100    2.0780 C.ar    1  UNL1        0.1175
      7  C         20.2810   19.5980   -1.5430 C.2     1  UNL1        0.3554
      8  O         19.7140   19.4650   -2.5990 O.2     1  UNL1       -0.2434
      9  OXT       21.6880   19.4440   -1.4690 O.3     1  UNL1       -0.4761
     10  C         16.1330   20.6020    1.2200 C.ar    1  UNL1        0.0020
     11  C         15.3450   21.5760    0.5310 C.ar    1  UNL1       -0.0498
     12  C         13.9880   21.7290    0.8250 C.ar    1  UNL1       -0.0244
     13  C         13.3740   20.9430    1.8800 C.ar    1  UNL1        0.1417
     14  C         14.1810   19.9350    2.5190 C.ar    1  UNL1        0.0767
     15  C         15.5250   19.7730    2.1520 C.ar    1  UNL1       -0.0314
     16 CL         13.4230   18.8460    3.6650 Cl      1  UNL1       -0.0806
     17  F         12.0800   21.0270    2.1430 F       1  UNL1       -0.2040
     18  H         17.6740   20.4920   -1.1920 H       1  UNL1        0.0662
     19  H         20.1280   19.6870    2.9810 H       1  UNL1        0.1047
     20  HXT       21.7350   19.2220   -2.4150 H       1  UNL1        0.2955
     21  H         15.7770   22.0570   -0.3410 H       1  UNL1        0.0625
     22  H         13.3760   22.4400    0.2790 H       1  UNL1        0.0647
     23  H         16.1370   19.0180    2.6400 H       1  UNL1        0.0639
@<TRIPOS>BOND
     1     1     2   ar
     2     1     6   ar
     3     2     3   ar
     4     2    10    1
     5     3    18    1
     6     3     4   ar
     7     4     7    1
     8     4     5   ar
     9     5     6   ar
    10     6    19    1
    11     7     8    2
    12     7     9    1
    13     9    20    1
    14    10    11   ar
    15    10    15   ar
    16    11    21    1
    17    11    12   ar
    18    12    22    1
    19    12    13   ar
    20    13    14   ar
    21    13    17    1
    22    14    15   ar
    23    14    16    1
    24    15    23    1
