@<TRIPOS>MOLECULE
./DFT_K002__PAC_aligned.pdb
 23 24 0 0 0
SMALL
GASTEIGER

@<TRIPOS>ATOM
      1  N         18.2180   20.2570    2.1280 N.2     1  UNL1       -0.2575
      2  C         17.5740   20.4720    1.0010 C.3     1  UNL1        0.1271
      3  C         18.2090   20.3200   -0.1900 C.3     1  UNL1        0.0513
      4  CA        19.5740   20.0240   -0.2150 C.2     1  UNL1        0.1329
      5  N         20.2220   19.6890    0.9280 N.2     1  UNL1       -0.2333
      6  C         19.5040   19.8930    2.0280 C.2     1  UNL1        0.1123
      7  C         20.2860   20.0180   -1.5460 C.2     1  UNL1        0.3516
      8  OXT       19.8420   20.4790   -2.6030 O.2     1  UNL1       -0.2438
      9  O         21.6280   20.0120   -1.3960 O.3     1  UNL1       -0.4763
     10  C         16.0720   20.4520    1.1270 C.ar    1  UNL1       -0.0139
     11  C         15.1660   19.8890    0.1190 C.ar    1  UNL1       -0.0533
     12  C         13.7910   20.0370    0.3030 C.ar    1  UNL1       -0.0233
     13  C         13.2580   20.4060    1.5130 C.ar    1  UNL1        0.1584
     14  C         14.0890   20.9280    2.5580 C.ar    1  UNL1        0.1587
     15  C         15.4740   20.9560    2.3480 C.ar    1  UNL1       -0.0180
     16  F         13.6340   21.4630    3.7280 F       1  UNL1       -0.2025
     17  F         11.9120   20.2920    1.7040 F       1  UNL1       -0.2025
     18  H         17.6180   20.4540   -1.0910 H       1  UNL1        0.0401
     19  H         20.0020   19.6890    2.9740 H       1  UNL1        0.1043
     20  H         21.9780   20.2320   -2.2770 H       1  UNL1        0.2954
     21  H         15.6360   19.3240   -0.6810 H       1  UNL1        0.0622
     22  H         13.1070   19.6400   -0.4430 H       1  UNL1        0.0647
     23  H         16.2000   21.4850    2.9580 H       1  UNL1        0.0651
@<TRIPOS>BOND
     1     1     6    2
     2     1     2    1
     3     2     3    1
     4     2    10    1
     5     3     4    1
     6     3    18    1
     7     4     7    1
     8     4     5    2
     9     5     6    1
    10     6    19    1
    11     7     9    1
    12     7     8    2
    13     9    20    1
    14    10    11   ar
    15    10    15   ar
    16    11    21    1
    17    11    12   ar
    18    12    22    1
    19    12    13   ar
    20    13    14   ar
    21    13    17    1
    22    14    15   ar
    23    14    16    1
    24    15    23    1
