@<TRIPOS>MOLECULE
./DFT_K007__PAC_aligned.pdb
 31 33 0 0 0
SMALL
GASTEIGER

@<TRIPOS>ATOM
      1  C         13.9310   21.1930   -0.2180 C.ar    1  UNL1        0.1398
      2  C         13.3250   21.7490    0.8610 C.ar    1  UNL1        0.0826
      3  C         14.1080   21.7490    2.0260 C.ar    1  UNL1       -0.0392
      4  C         15.3550   21.2230    2.1470 C.ar    1  UNL1       -0.0510
      5  C         16.0250   20.7260    1.0590 C.ar    1  UNL1        0.0040
      6  C         15.2400   20.7570   -0.1630 C.ar    1  UNL1       -0.0093
      7  C         17.5700   20.4220    0.9900 C.ar    1  UNL1        0.0751
      8  C         18.2350   20.3720   -0.2250 C.ar    1  UNL1       -0.0032
      9  CA        19.5360   19.9810   -0.2390 C.ar    1  UNL1        0.1511
     10  N         20.2250   19.7350    0.9200 N.ar    1  UNL1       -0.2288
     11  C         19.5050   19.8510    2.0790 C.ar    1  UNL1        0.1175
     12  N         18.2290   20.2950    2.1560 N.ar    1  UNL1       -0.2354
     13  C         20.3470   20.0360   -1.4890 C.2     1  UNL1        0.3554
     14  OXT       19.9770   20.1470   -2.6520 O.2     1  UNL1       -0.2434
     15  O         21.6420   19.7020   -1.2600 O.3     1  UNL1       -0.4761
     16 CL         11.6720   22.5290    0.8660 Cl      1  UNL1       -0.0798
     17  O         13.3530   21.3570   -1.4920 O.3     1  UNL1       -0.4873
     18  C         13.0070   20.1560   -2.1670 C.3     1  UNL1        0.1005
     19  C         12.6700   20.4900   -3.6970 C.3     1  UNL1       -0.0124
     20  C         11.6020   20.0250   -2.6830 C.3     1  UNL1       -0.0124
     21  H         13.5970   22.2150    2.8640 H       1  UNL1        0.0633
     22  H         15.8130   21.3620    3.1220 H       1  UNL1        0.0625
     23  H         15.7410   20.4520   -1.0760 H       1  UNL1        0.0661
     24  H         17.7620   20.5450   -1.1860 H       1  UNL1        0.0662
     25  H         20.0470   19.4690    2.9420 H       1  UNL1        0.1047
     26  H         21.7240   19.5160   -0.3090 H       1  UNL1        0.2955
     27  H         13.6870   19.3220   -1.9920 H       1  UNL1        0.0733
     28  H         13.0520   19.8060   -4.4500 H       1  UNL1        0.0302
     29  H         12.5480   21.5350   -3.9710 H       1  UNL1        0.0302
     30  H         11.2060   19.0330   -2.8860 H       1  UNL1        0.0302
     31  H         10.8770   20.7540   -2.3300 H       1  UNL1        0.0302
@<TRIPOS>BOND
     1     1     6   ar
     2     1     2   ar
     3     1    17    1
     4     2     3   ar
     5     2    16    1
     6     3     4   ar
     7     3    21    1
     8     4    22    1
     9     4     5   ar
    10     5     7    1
    11     5     6   ar
    12     6    23    1
    13     7     8   ar
    14     7    12   ar
    15     8     9   ar
    16     8    24    1
    17     9    13    1
    18     9    10   ar
    19    10    11   ar
    20    11    25    1
    21    11    12   ar
    22    13    15    1
    23    13    14    2
    24    15    26    1
    25    17    18    1
    26    18    19    1
    27    18    27    1
    28    18    20    1
    29    19    29    1
    30    19    28    1
    31    19    20    1
    32    20    31    1
    33    20    30    1
