@<TRIPOS>MOLECULE
./DFT_K081__PAC_aligned.pdb
 23 24 0 0 0
SMALL
GASTEIGER

@<TRIPOS>ATOM
      1  N         18.2370   20.3230    2.1690 N.2     1  UNL1       -0.2574
      2  C         17.5200   20.3960    0.9720 C.3     1  UNL1        0.1298
      3  C         18.1890   20.4070   -0.2670 C.3     1  UNL1        0.0514
      4  CA        19.5670   19.9820   -0.2250 C.2     1  UNL1        0.1329
      5  N         20.2350   19.7090    0.9300 N.2     1  UNL1       -0.2333
      6  C         19.5530   19.8380    2.1010 C.2     1  UNL1        0.1123
      7  C         20.2430   19.8710   -1.5400 C.2     1  UNL1        0.3516
      8  O         19.8780   20.6340   -2.4440 O.2     1  UNL1       -0.2438
      9  OXT       21.4350   19.3090   -1.4920 O.3     1  UNL1       -0.4763
     10  C         16.1110   20.7830    1.1480 C.ar    1  UNL1        0.0199
     11  C         15.3990   20.1390    2.1570 C.ar    1  UNL1       -0.0533
     12  C         14.0430   20.5440    2.4280 C.ar    1  UNL1       -0.0599
     13  C         13.3660   21.3700    1.5390 C.ar    1  UNL1       -0.0406
     14  C         14.0330   22.0200    0.5260 C.ar    1  UNL1        0.0764
     15  C         15.4100   21.6740    0.3220 C.ar    1  UNL1        0.1472
     16  F         16.0770   22.2720   -0.6090 F       1  UNL1       -0.2036
     17 CL         13.0790   23.0380   -0.6900 Cl      1  UNL1       -0.0806
     18  H         17.7390   20.5800   -1.2400 H       1  UNL1        0.0401
     19  H         20.0490   19.6520    3.0520 H       1  UNL1        0.1043
     20  HXT       21.7760   19.7210   -2.3060 H       1  UNL1        0.2954
     21  H         15.8210   19.3610    2.7860 H       1  UNL1        0.0622
     22  H         13.4320   20.2010    3.2570 H       1  UNL1        0.0618
     23  H         12.3230   21.6020    1.7300 H       1  UNL1        0.0633
@<TRIPOS>BOND
     1     1     2    1
     2     1     6    2
     3     2     3    1
     4     2    10    1
     5     3    18    1
     6     3     4    1
     7     4     7    1
     8     4     5    2
     9     5     6    1
    10     6    19    1
    11     7     8    2
    12     7     9    1
    13     9    20    1
    14    10    15   ar
    15    10    11   ar
    16    11    12   ar
    17    11    21    1
    18    12    13   ar
    19    12    22    1
    20    13    14   ar
    21    13    23    1
    22    14    17    1
    23    14    15   ar
    24    15    16    1
