@<TRIPOS>MOLECULE
./DFT_K006__PAC_aligned.pdb
 31 33 0 0 0
SMALL
GASTEIGER

@<TRIPOS>ATOM
      1  N         18.1810   20.2020    2.1580 N.ar    1  UNL1       -0.2354
      2  C         17.6140   20.5230    1.0220 C.ar    1  UNL1        0.0750
      3  C         18.2280   20.3210   -0.1870 C.ar    1  UNL1       -0.0032
      4  CA        19.5870   19.9450   -0.2450 C.ar    1  UNL1        0.1511
      5  N         20.2110   19.7730    0.8920 N.ar    1  UNL1       -0.2288
      6  C         19.4800   19.8910    2.0400 C.ar    1  UNL1        0.1175
      7  C         20.3340   19.7440   -1.5750 C.2     1  UNL1        0.3554
      8  OXT       21.4990   19.7080   -1.5950 O.2     1  UNL1       -0.2434
      9  O         19.6840   19.5380   -2.6960 O.3     1  UNL1       -0.4761
     10  C         16.1570   20.8180    1.0340 C.ar    1  UNL1        0.0021
     11  C         15.6250   21.6220    0.0770 C.ar    1  UNL1       -0.0490
     12  C         14.3020   22.0010    0.1470 C.ar    1  UNL1       -0.0178
     13  C         13.3530   21.4240    1.0100 C.ar    1  UNL1        0.1392
     14  C         13.8960   20.5920    1.9860 C.ar    1  UNL1        0.0832
     15  C         15.2820   20.2900    2.0500 C.ar    1  UNL1       -0.0306
     16 CL         12.8680   19.9280    3.2390 Cl      1  UNL1       -0.0797
     17  O         12.0440   21.7610    0.9820 O.3     1  UNL1       -0.4874
     18  C         11.3870   20.6920    0.3230 C.3     1  UNL1        0.1005
     19  C          9.9300   20.7900    0.1070 C.3     1  UNL1       -0.0124
     20  C         10.9160   20.9530   -1.0810 C.3     1  UNL1       -0.0124
     21  H         17.7690   20.4660   -1.1600 H       1  UNL1        0.0662
     22  H         20.0140   19.6250    2.9490 H       1  UNL1        0.1047
     23  H         20.3440   19.4280   -3.4030 H       1  UNL1        0.2955
     24  H         16.2740   22.0010   -0.7070 H       1  UNL1        0.0625
     25  H         13.8620   22.6890   -0.5700 H       1  UNL1        0.0655
     26  H         15.7310   19.6070    2.7660 H       1  UNL1        0.0640
     27  H         11.7450   19.7180    0.6560 H       1  UNL1        0.0733
     28  H          9.4400   21.6950    0.4580 H       1  UNL1        0.0302
     29  H          9.4010   19.8610    0.3020 H       1  UNL1        0.0302
     30  H         11.2190   21.9320   -1.4450 H       1  UNL1        0.0302
     31  H         10.9100   20.1530   -1.8170 H       1  UNL1        0.0302
@<TRIPOS>BOND
     1     1     2   ar
     2     1     6   ar
     3     2    10    1
     4     2     3   ar
     5     3    21    1
     6     3     4   ar
     7     4     5   ar
     8     4     7    1
     9     5     6   ar
    10     6    22    1
    11     7     9    1
    12     7     8    2
    13     9    23    1
    14    10    15   ar
    15    10    11   ar
    16    11    12   ar
    17    11    24    1
    18    12    13   ar
    19    12    25    1
    20    13    14   ar
    21    13    17    1
    22    14    16    1
    23    14    15   ar
    24    15    26    1
    25    17    18    1
    26    18    19    1
    27    18    27    1
    28    18    20    1
    29    19    29    1
    30    19    28    1
    31    19    20    1
    32    20    31    1
    33    20    30    1
