@<TRIPOS>MOLECULE
./DFT_K041__PAC_aligned.pdb
 26 27 0 0 0
SMALL
GASTEIGER

@<TRIPOS>ATOM
      1  N         18.2050   20.2520    2.1500 N.ar    1  UNL1       -0.2354
      2  C         17.5440   20.4800    1.0100 C.ar    1  UNL1        0.0750
      3  C         18.2060   20.3500   -0.1830 C.ar    1  UNL1       -0.0032
      4  CA        19.6090   19.9640   -0.2260 C.ar    1  UNL1        0.1511
      5  N         20.2520   19.7260    0.8990 N.ar    1  UNL1       -0.2288
      6  C         19.4850   19.8840    2.0300 C.ar    1  UNL1        0.1175
      7  C         20.3770   19.8780   -1.4800 C.2     1  UNL1        0.3554
      8  OXT       21.5670   19.8540   -1.5690 O.2     1  UNL1       -0.2434
      9  O         19.6030   19.7330   -2.6310 O.3     1  UNL1       -0.4761
     10  C         16.0950   20.9800    1.0940 C.ar    1  UNL1        0.0019
     11  C         15.5950   21.9010    0.1960 C.ar    1  UNL1       -0.0519
     12  C         14.3130   22.4340    0.2690 C.ar    1  UNL1       -0.0481
     13  C         13.4470   21.9500    1.2970 C.ar    1  UNL1        0.0731
     14  C         13.9350   21.0380    2.2950 C.ar    1  UNL1        0.0532
     15  C         15.2920   20.5340    2.2060 C.ar    1  UNL1       -0.0337
     16 CL         13.0740   20.3360    3.5900 Cl      1  UNL1       -0.0830
     17  C         11.9300   22.3350    1.2800 C.3     1  UNL1        0.4188
     18  F         11.4880   22.8020    2.4820 F       1  UNL1       -0.1658
     19  F         11.1820   21.2700    1.0700 F       1  UNL1       -0.1658
     20  F         11.6370   23.3410    0.3670 F       1  UNL1       -0.1658
     21  H         17.7440   20.6170   -1.1290 H       1  UNL1        0.0662
     22  H         19.9490   19.4810    2.9280 H       1  UNL1        0.1047
     23  H         20.2680   19.3350   -3.2190 H       1  UNL1        0.2955
     24  H         16.1550   22.1020   -0.7140 H       1  UNL1        0.0624
     25  H         14.0200   23.1740   -0.4700 H       1  UNL1        0.0624
     26  H         15.7090   19.9290    3.0060 H       1  UNL1        0.0639
@<TRIPOS>BOND
     1     1     2   ar
     2     1     6   ar
     3     2     3   ar
     4     2    10    1
     5     3    21    1
     6     3     4   ar
     7     4     7    1
     8     4     5   ar
     9     5     6   ar
    10     6    22    1
    11     7     9    1
    12     7     8    2
    13     9    23    1
    14    10    11   ar
    15    10    15   ar
    16    11    24    1
    17    11    12   ar
    18    12    25    1
    19    12    13   ar
    20    13    17    1
    21    13    14   ar
    22    14    15   ar
    23    14    16    1
    24    15    26    1
    25    17    19    1
    26    17    20    1
    27    17    18    1
