@<TRIPOS>MOLECULE
./DFT_K045__PAC_aligned.pdb
 23 24 0 0 0
SMALL
GASTEIGER

@<TRIPOS>ATOM
      1  N         18.2230   20.1900    2.1910 N.2     1  UNL1       -0.2531
      2  C         17.5660   20.4440    1.0110 C.3     1  UNL1        0.1762
      3  C         18.2740   20.4220   -0.2380 C.2     1  UNL1        0.1654
      4  CA        19.5680   19.9110   -0.2690 C.2     1  UNL1        0.1722
      5  N         20.1440   19.7300    0.9240 N.pl3   1  UNL1       -0.1939
      6  C         19.5260   19.9570    2.0610 C.2     1  UNL1        0.1024
      7  C         20.4530   19.6900   -1.4750 C.2     1  UNL1        0.3556
      8  OXT       21.6490   19.5580   -1.3900 O.2     1  UNL1       -0.2435
      9  O         19.8250   19.7440   -2.6340 O.3     1  UNL1       -0.4762
     10  F         17.5810   20.6220   -1.3560 F       1  UNL1       -0.2049
     11  C         16.1380   20.8460    1.1420 C.ar    1  UNL1       -0.0089
     12  C         15.5590   21.4910    2.3470 C.ar    1  UNL1       -0.0543
     13  C         14.2060   21.8340    2.4640 C.ar    1  UNL1       -0.0416
     14  C         13.3720   21.5950    1.4400 C.ar    1  UNL1        0.0593
     15  C         13.8770   21.0990    0.2280 C.ar    1  UNL1        0.0596
     16  C         15.2150   20.6670    0.0870 C.ar    1  UNL1       -0.0360
     17 CL         12.7070   20.6770   -1.1080 Cl      1  UNL1       -0.0820
     18 CL         11.7910   22.3390    1.6790 Cl      1  UNL1       -0.0820
     19  H         20.0530   19.6740    2.9690 H       1  UNL1        0.1014
     20  H         20.4350   19.4180   -3.3170 H       1  UNL1        0.2955
     21  H         16.1050   21.7430    3.2520 H       1  UNL1        0.0622
     22  H         13.7580   22.2730    3.3500 H       1  UNL1        0.0633
     23  H         15.3810   20.0720   -0.8060 H       1  UNL1        0.0636
@<TRIPOS>BOND
     1     1     2    1
     2     1     6    2
     3     2    11    1
     4     2     3    1
     5     3    10    1
     6     3     4    2
     7     4     7    1
     8     4     5    1
     9     5     6    1
    10     6    19    1
    11     7     9    1
    12     7     8    2
    13     9    20    1
    14    11    16   ar
    15    11    12   ar
    16    12    13   ar
    17    12    21    1
    18    13    14   ar
    19    13    22    1
    20    14    18    1
    21    14    15   ar
    22    15    17    1
    23    15    16   ar
    24    16    23    1
