@<TRIPOS>MOLECULE
./DFT_K104__PAC_aligned.pdb
 35 37 0 0 0
SMALL
GASTEIGER

@<TRIPOS>ATOM
      1  N         11.8090   20.4450    1.7500 N.pl3   1  UNL1       -0.3288
      2  C         13.1760   20.4480    1.4740 C.ar    1  UNL1        0.0483
      3  C         14.0140   20.0790    2.5540 C.ar    1  UNL1       -0.0386
      4  C         15.4280   20.1060    2.3640 C.ar    1  UNL1       -0.0507
      5  C         16.0100   20.4110    1.1090 C.ar    1  UNL1        0.0020
      6  C         17.5470   20.4050    1.0280 C.ar    1  UNL1        0.0750
      7  N         18.2250   20.2850    2.1480 N.ar    1  UNL1       -0.2354
      8  C         19.5060   19.9130    2.0580 C.ar    1  UNL1        0.1175
      9  N         20.2040   19.6690    0.9170 N.ar    1  UNL1       -0.2288
     10  CA        19.5890   20.0000   -0.2410 C.ar    1  UNL1        0.1511
     11  C         18.2300   20.3820   -0.2300 C.ar    1  UNL1       -0.0032
     12  C         20.3100   19.5340   -1.5670 C.2     1  UNL1        0.3554
     13  OXT       19.7310   19.6850   -2.6160 O.2     1  UNL1       -0.2434
     14  O         21.5540   19.0240   -1.4740 O.3     1  UNL1       -0.4761
     15  C         15.0990   20.7120   -0.0120 C.ar    1  UNL1       -0.0324
     16  C         13.7000   20.5560    0.1810 C.ar    1  UNL1        0.0626
     17 CL         12.5770   20.7140   -1.1210 Cl      1  UNL1       -0.0816
     18  C         11.2400   21.7240    2.2240 C.3     1  UNL1        0.0123
     19  C          9.9780   21.3450    3.0160 C.3     1  UNL1       -0.0358
     20  C          9.9080   19.8710    3.1110 C.3     1  UNL1       -0.0358
     21  C         11.0550   19.3080    2.3020 C.3     1  UNL1        0.0123
     22  H         13.5940   20.0370    3.5550 H       1  UNL1        0.0637
     23  H         16.1300   19.9870    3.1840 H       1  UNL1        0.0625
     24  H         19.8900   19.6720    3.0470 H       1  UNL1        0.1047
     25  H         17.7330   20.4570   -1.1920 H       1  UNL1        0.0662
     26  H         21.5960   19.0760   -2.4450 H       1  UNL1        0.2955
     27  H         15.5380   20.9150   -0.9830 H       1  UNL1        0.0639
     28  H         10.9380   22.4060    1.4200 H       1  UNL1        0.0464
     29  H         12.0520   22.1980    2.7890 H       1  UNL1        0.0464
     30  H          9.1270   21.8650    2.5570 H       1  UNL1        0.0281
     31  H         10.0350   21.8300    3.9990 H       1  UNL1        0.0281
     32  H          8.9520   19.4730    2.7510 H       1  UNL1        0.0281
     33  H         10.0440   19.5410    4.1490 H       1  UNL1        0.0281
     34  H         10.7030   18.5750    1.5670 H       1  UNL1        0.0464
     35  H         11.6420   18.6540    2.9580 H       1  UNL1        0.0464
@<TRIPOS>BOND
     1     1     2    1
     2     1    18    1
     3     1    21    1
     4     2     3   ar
     5     2    16   ar
     6     3     4   ar
     7     3    22    1
     8     4    23    1
     9     4     5   ar
    10     5     6    1
    11     5    15   ar
    12     6     7   ar
    13     6    11   ar
    14     7     8   ar
    15     8    24    1
    16     8     9   ar
    17     9    10   ar
    18    10    12    1
    19    10    11   ar
    20    11    25    1
    21    12    14    1
    22    12    13    2
    23    14    26    1
    24    15    27    1
    25    15    16   ar
    26    16    17    1
    27    18    29    1
    28    18    28    1
    29    18    19    1
    30    19    31    1
    31    19    30    1
    32    19    20    1
    33    20    33    1
    34    20    21    1
    35    20    32    1
    36    21    35    1
    37    21    34    1
