@<TRIPOS>MOLECULE
./DFT_K003__PAC_aligned.pdb
 23 24 0 0 0
SMALL
GASTEIGER

@<TRIPOS>ATOM
      1  N         18.2130   20.2000    2.1530 N.ar    1  UNL1       -0.2354
      2  C         17.6250   20.5370    1.0050 C.ar    1  UNL1        0.0750
      3  C         18.2100   20.3100   -0.2390 C.ar    1  UNL1       -0.0032
      4  CA        19.5410   19.9530   -0.2220 C.ar    1  UNL1        0.1511
      5  N         20.2120   19.7960    0.9300 N.ar    1  UNL1       -0.2288
      6  C         19.4990   19.8580    2.0540 C.ar    1  UNL1        0.1175
      7  C         20.3280   20.0510   -1.5420 C.2     1  UNL1        0.3554
      8  O         19.8650   20.2380   -2.6120 O.2     1  UNL1       -0.2434
      9  OXT       21.5890   20.3740   -1.5190 O.3     1  UNL1       -0.4761
     10  C         16.2800   21.2070    1.1010 C.ar    1  UNL1        0.0033
     11  C         16.2130   22.4980    1.6060 C.ar    1  UNL1       -0.0510
     12  C         14.9920   23.2270    1.5600 C.ar    1  UNL1       -0.0400
     13  C         13.9140   22.6620    0.8550 C.ar    1  UNL1        0.0761
     14  C         13.9980   21.2840    0.4900 C.ar    1  UNL1        0.1422
     15  C         15.1800   20.6230    0.5490 C.ar    1  UNL1       -0.0158
     16  F         12.9530   20.6380   -0.0090 F       1  UNL1       -0.2039
     17 CL         12.5380   23.6380    0.7200 Cl      1  UNL1       -0.0806
     18  H         17.5850   20.5800   -1.0860 H       1  UNL1        0.0662
     19  H         20.0440   19.7920    2.9930 H       1  UNL1        0.1047
     20  HXT       21.8720   20.3560   -2.4500 H       1  UNL1        0.2955
     21  H         17.0410   22.9690    2.1290 H       1  UNL1        0.0625
     22  H         14.8230   24.1910    2.0310 H       1  UNL1        0.0633
     23  H         15.1710   19.5840    0.2320 H       1  UNL1        0.0653
@<TRIPOS>BOND
     1     1     2   ar
     2     1     6   ar
     3     2     3   ar
     4     2    10    1
     5     3    18    1
     6     3     4   ar
     7     4     7    1
     8     4     5   ar
     9     5     6   ar
    10     6    19    1
    11     7     8    2
    12     7     9    1
    13     9    20    1
    14    10    15   ar
    15    10    11   ar
    16    11    12   ar
    17    11    21    1
    18    12    13   ar
    19    12    22    1
    20    13    17    1
    21    13    14   ar
    22    14    16    1
    23    14    15   ar
    24    15    23    1
