@<TRIPOS>MOLECULE
./DFT_K052__PAC_aligned.pdb
 23 24 0 0 0
SMALL
GASTEIGER

@<TRIPOS>ATOM
      1  N         18.2260   20.2740    2.1710 N.ar    1  UNL1       -0.2354
      2  C         17.5410   20.4650    0.9860 C.ar    1  UNL1        0.0749
      3  C         18.1790   20.3590   -0.2640 C.ar    1  UNL1       -0.0032
      4  CA        19.5840   19.9810   -0.2270 C.ar    1  UNL1        0.1511
      5  N         20.2340   19.7310    0.9220 N.ar    1  UNL1       -0.2288
      6  C         19.5370   19.8450    2.0920 C.ar    1  UNL1        0.1175
      7  C         20.3980   19.8540   -1.5270 C.2     1  UNL1        0.3554
      8  OXT       21.6160   19.8640   -1.5460 O.2     1  UNL1       -0.2434
      9  O         19.7250   20.0080   -2.6280 O.3     1  UNL1       -0.4761
     10  C         16.0960   20.6090    1.2060 C.ar    1  UNL1        0.0006
     11  C         15.6320   21.3500    2.2570 C.ar    1  UNL1       -0.0512
     12  C         14.2530   21.5670    2.3530 C.ar    1  UNL1       -0.0428
     13  C         13.3060   20.9150    1.5410 C.ar    1  UNL1        0.0410
     14  C         13.8290   20.0950    0.4820 C.ar    1  UNL1       -0.0428
     15  C         15.2020   20.0570    0.2720 C.ar    1  UNL1       -0.0512
     16 CL         11.5650   21.0130    1.7900 Cl      1  UNL1       -0.0835
     17  H         17.6090   20.6060   -1.1550 H       1  UNL1        0.0662
     18  H         20.2090   19.6680    2.9290 H       1  UNL1        0.1047
     19  H         20.3300   20.0260   -3.3900 H       1  UNL1        0.2955
     20  H         16.3620   21.7910    2.9310 H       1  UNL1        0.0625
     21  H         13.9440   22.1470    3.2170 H       1  UNL1        0.0632
     22  H         13.1280   19.5620   -0.1540 H       1  UNL1        0.0632
     23  H         15.5750   19.4830   -0.5710 H       1  UNL1        0.0625
@<TRIPOS>BOND
     1     1     2   ar
     2     1     6   ar
     3     2    10    1
     4     2     3   ar
     5     3    17    1
     6     3     4   ar
     7     4     7    1
     8     4     5   ar
     9     5     6   ar
    10     6    18    1
    11     7     9    1
    12     7     8    2
    13     9    19    1
    14    10    15   ar
    15    10    11   ar
    16    11    12   ar
    17    11    20    1
    18    12    13   ar
    19    12    21    1
    20    13    16    1
    21    13    14   ar
    22    14    22    1
    23    14    15   ar
    24    15    23    1
