@<TRIPOS>MOLECULE
./DFT_K010__PAC_aligned.pdb
 26 27 0 0 0
SMALL
GASTEIGER

@<TRIPOS>ATOM
      1  N         18.2590   20.3230    2.1600 N.ar    1  UNL1       -0.2354
      2  C         17.5340   20.4090    0.9960 C.ar    1  UNL1        0.0750
      3  C         18.2140   20.3810   -0.2090 C.ar    1  UNL1       -0.0032
      4  CA        19.5930   19.9690   -0.2490 C.ar    1  UNL1        0.1511
      5  N         20.2250   19.7430    0.9180 N.ar    1  UNL1       -0.2288
      6  C         19.4760   19.8290    2.0650 C.ar    1  UNL1        0.1175
      7  C         20.4190   19.8260   -1.5110 C.2     1  UNL1        0.3554
      8  O         21.5560   20.1720   -1.6830 O.2     1  UNL1       -0.2434
      9  OXT       19.7250   19.3310   -2.5180 O.3     1  UNL1       -0.4761
     10  C         16.0940   20.6350    1.0810 C.ar    1  UNL1        0.0032
     11  C         15.5240   21.4350    2.1720 C.ar    1  UNL1       -0.0521
     12  C         14.1690   21.6380    2.3010 C.ar    1  UNL1       -0.0555
     13  C         13.2740   21.1220    1.3590 C.ar    1  UNL1       -0.0152
     14  C         13.7410   20.3520    0.2910 C.ar    1  UNL1        0.1269
     15  C         15.1630   20.1750    0.1790 C.ar    1  UNL1       -0.0170
     16  F         12.9410   19.9280   -0.6740 F       1  UNL1       -0.2052
     17  C         11.8160   21.3890    1.4850 C.3     1  UNL1       -0.0370
     18  H         17.8030   20.5870   -1.1930 H       1  UNL1        0.0662
     19  H         20.0680   19.7320    2.9720 H       1  UNL1        0.1047
     20  HXT       20.4540   19.0640   -3.1050 H       1  UNL1        0.2955
     21  H         16.1970   21.7240    2.9740 H       1  UNL1        0.0624
     22  H         13.7620   22.2290    3.1160 H       1  UNL1        0.0621
     23  H         15.4380   19.6560   -0.7340 H       1  UNL1        0.0653
     24  H         11.4190   20.7290    2.2660 H       1  UNL1        0.0278
     25  H         11.5620   22.4250    1.7400 H       1  UNL1        0.0278
     26  H         11.2970   21.2560    0.5280 H       1  UNL1        0.0278
@<TRIPOS>BOND
     1     1     6   ar
     2     1     2   ar
     3     2     3   ar
     4     2    10    1
     5     3     4   ar
     6     3    18    1
     7     4     5   ar
     8     4     7    1
     9     5     6   ar
    10     6    19    1
    11     7     8    2
    12     7     9    1
    13     9    20    1
    14    10    11   ar
    15    10    15   ar
    16    11    21    1
    17    11    12   ar
    18    12    22    1
    19    12    13   ar
    20    13    14   ar
    21    13    17    1
    22    14    15   ar
    23    14    16    1
    24    15    23    1
    25    17    25    1
    26    17    24    1
    27    17    26    1
