@<TRIPOS>MOLECULE
./DFT_K051__PAC_aligned.pdb
 26 27 0 0 0
SMALL
GASTEIGER

@<TRIPOS>ATOM
      1  N         18.2230   20.1900    2.1170 N.ar    1  UNL1       -0.2351
      2  C         17.5670   20.5090    0.9990 C.ar    1  UNL1        0.0779
      3  C         18.1970   20.3650   -0.2180 C.ar    1  UNL1        0.0079
      4  CA        19.5560   19.9420   -0.2240 C.ar    1  UNL1        0.1540
      5  N         20.2380   19.7400    0.9300 N.ar    1  UNL1       -0.2286
      6  C         19.5180   19.9090    2.0760 C.ar    1  UNL1        0.1175
      7  C         20.2270   19.5240   -1.5510 C.2     1  UNL1        0.3557
      8  OXT       20.4200   20.1610   -2.5430 O.2     1  UNL1       -0.2434
      9  O         20.8460   18.2970   -1.4230 O.3     1  UNL1       -0.4761
     10  C         17.4370   20.5520   -1.5520 C.3     1  UNL1       -0.0354
     11  C         16.0450   20.7830    1.1420 C.ar    1  UNL1        0.0022
     12  C         15.5230   22.1240    0.8650 C.ar    1  UNL1       -0.0511
     13  C         14.1090   22.2400    0.8550 C.ar    1  UNL1       -0.0413
     14  C         13.2820   21.1630    1.1310 C.ar    1  UNL1        0.0593
     15  C         13.8180   19.9180    1.4110 C.ar    1  UNL1        0.0599
     16  C         15.1960   19.7390    1.4780 C.ar    1  UNL1       -0.0328
     17 CL         12.9050   18.5680    1.7380 Cl      1  UNL1       -0.0820
     18 CL         11.5540   21.4060    1.0990 Cl      1  UNL1       -0.0820
     19  H         19.9810   19.6270    3.0190 H       1  UNL1        0.1047
     20  H         21.4240   18.1830   -2.1980 H       1  UNL1        0.2955
     21  H         16.7250   21.3640   -1.3600 H       1  UNL1        0.0279
     22  H         18.1070   20.6730   -2.4120 H       1  UNL1        0.0279
     23  H         16.8560   19.6290   -1.6690 H       1  UNL1        0.0279
     24  H         16.0790   23.0060    0.5600 H       1  UNL1        0.0625
     25  H         13.7140   23.1510    0.4110 H       1  UNL1        0.0633
     26  H         15.6570   18.7820    1.6990 H       1  UNL1        0.0639
@<TRIPOS>BOND
     1     1     6   ar
     2     1     2   ar
     3     2    11    1
     4     2     3   ar
     5     3     4   ar
     6     3    10    1
     7     4     5   ar
     8     4     7    1
     9     5     6   ar
    10     6    19    1
    11     7     9    1
    12     7     8    2
    13     9    20    1
    14    10    23    1
    15    10    21    1
    16    10    22    1
    17    11    16   ar
    18    11    12   ar
    19    12    13   ar
    20    12    24    1
    21    13    14   ar
    22    13    25    1
    23    14    15   ar
    24    14    18    1
    25    15    17    1
    26    15    16   ar
    27    16    26    1
