@<TRIPOS>MOLECULE
./DFT_K083__PAC_aligned.pdb
 27 28 0 0 0
SMALL
GASTEIGER

@<TRIPOS>ATOM
      1  N         18.2360   20.2380    2.1630 N.ar    1  UNL1       -0.2317
      2  C         17.5880   20.5080    1.0270 C.ar    1  UNL1        0.1166
      3  C         18.2000   20.3180   -0.2610 C.ar    1  UNL1        0.1783
      4  CA        19.5870   19.9690   -0.2640 C.ar    1  UNL1        0.1927
      5  N         20.1890   19.7750    0.9490 N.ar    1  UNL1       -0.2253
      6  C         19.5010   19.8470    2.0660 C.ar    1  UNL1        0.1178
      7  C         20.3860   19.7460   -1.6010 C.2     1  UNL1        0.3591
      8  O         20.0290   20.2090   -2.6840 O.2     1  UNL1       -0.2433
      9  OXT       21.5630   19.2630   -1.5670 O.3     1  UNL1       -0.4760
     10  O         17.5700   20.6100   -1.4280 O.3     1  UNL1       -0.4906
     11  C         17.5750   21.9970   -1.8370 C.3     1  UNL1        0.0790
     12  C         16.1700   21.0240    1.1000 C.ar    1  UNL1        0.0055
     13  C         15.0960   20.5290    0.3230 C.ar    1  UNL1       -0.0510
     14  C         13.7850   20.8330    0.5650 C.ar    1  UNL1       -0.0413
     15  C         13.4270   21.8780    1.4310 C.ar    1  UNL1        0.0593
     16  C         14.4240   22.4640    2.2280 C.ar    1  UNL1        0.0599
     17  C         15.7740   22.0230    1.9910 C.ar    1  UNL1       -0.0327
     18 CL         14.0980   23.7280    3.4800 Cl      1  UNL1       -0.0820
     19 CL         11.7670   22.3630    1.4260 Cl      1  UNL1       -0.0820
     20  H         19.9210   19.5660    3.0300 H       1  UNL1        0.1047
     21  HXT       21.7970   19.4240   -2.4980 H       1  UNL1        0.2955
     22  H         17.0470   22.0620   -2.7960 H       1  UNL1        0.0660
     23  H         17.0570   22.6200   -1.0970 H       1  UNL1        0.0660
     24  H         18.6450   22.2360   -1.8740 H       1  UNL1        0.0660
     25  H         15.3130   19.6770   -0.3150 H       1  UNL1        0.0625
     26  H         13.0360   20.2440    0.0420 H       1  UNL1        0.0633
     27  H         16.5170   22.5370    2.5940 H       1  UNL1        0.0639
@<TRIPOS>BOND
     1     1     2   ar
     2     1     6   ar
     3     2    12    1
     4     2     3   ar
     5     3    10    1
     6     3     4   ar
     7     4     7    1
     8     4     5   ar
     9     5     6   ar
    10     6    20    1
    11     7     8    2
    12     7     9    1
    13     9    21    1
    14    10    11    1
    15    11    22    1
    16    11    23    1
    17    11    24    1
    18    12    17   ar
    19    12    13   ar
    20    13    14   ar
    21    13    25    1
    22    14    15   ar
    23    14    26    1
    24    15    19    1
    25    15    16   ar
    26    16    18    1
    27    16    17   ar
    28    17    27    1
