@<TRIPOS>MOLECULE
./DFT_K075__PAC_aligned.pdb
 30 31 0 0 0
SMALL
GASTEIGER

@<TRIPOS>ATOM
      1  N         18.2260   20.2620    2.1850 N.ar    1  UNL1       -0.2350
      2  C         17.5900   20.4720    1.0030 C.ar    1  UNL1        0.0804
      3  C         18.2220   20.3270   -0.2660 C.ar    1  UNL1        0.0364
      4  CA        19.5640   19.9980   -0.2510 C.ar    1  UNL1        0.1565
      5  N         20.1740   19.7430    0.9370 N.ar    1  UNL1       -0.2285
      6  C         19.5250   19.8530    2.0730 C.ar    1  UNL1        0.1175
      7  C         20.4090   19.9140   -1.5640 C.2     1  UNL1        0.3558
      8  OXT       20.1600   20.4330   -2.6010 O.2     1  UNL1       -0.2434
      9  O         21.5020   19.1690   -1.5630 O.3     1  UNL1       -0.4761
     10  C         17.4440   20.3580   -1.5750 C.3     1  UNL1        0.0766
     11  O         17.4370   19.0000   -2.0670 O.3     1  UNL1       -0.3783
     12  C         16.5730   18.7180   -3.1620 C.3     1  UNL1        0.0369
     13  C         16.1570   20.5480    1.1610 C.ar    1  UNL1        0.0023
     14  C         15.5830   21.8480    1.2290 C.ar    1  UNL1       -0.0511
     15  C         14.2040   22.0670    1.2850 C.ar    1  UNL1       -0.0413
     16  C         13.3600   20.9090    1.4140 C.ar    1  UNL1        0.0593
     17  C         13.9100   19.6000    1.4130 C.ar    1  UNL1        0.0599
     18  C         15.3210   19.4400    1.2810 C.ar    1  UNL1       -0.0328
     19 CL         12.8930   18.2180    1.3870 Cl      1  UNL1       -0.0820
     20 CL         11.6530   21.2210    1.3980 Cl      1  UNL1       -0.0820
     21  H         20.0280   19.6830    3.0230 H       1  UNL1        0.1047
     22  H         21.8970   19.4450   -2.4090 H       1  UNL1        0.2955
     23  H         17.8490   21.0830   -2.2930 H       1  UNL1        0.0611
     24  H         16.4430   20.7290   -1.3260 H       1  UNL1        0.0611
     25  H         16.7540   19.3920   -4.0080 H       1  UNL1        0.0524
     26  H         16.8920   17.7370   -3.5340 H       1  UNL1        0.0524
     27  H         15.5530   18.6340   -2.7640 H       1  UNL1        0.0524
     28  H         16.1350   22.7800    1.3100 H       1  UNL1        0.0625
     29  H         13.7610   23.0540    1.3810 H       1  UNL1        0.0633
     30  H         15.7680   18.4560    1.1720 H       1  UNL1        0.0639
@<TRIPOS>BOND
     1     1     6   ar
     2     1     2   ar
     3     2    13    1
     4     2     3   ar
     5     3     4   ar
     6     3    10    1
     7     4     5   ar
     8     4     7    1
     9     5     6   ar
    10     6    21    1
    11     7     9    1
    12     7     8    2
    13     9    22    1
    14    10    11    1
    15    10    24    1
    16    10    23    1
    17    11    12    1
    18    12    27    1
    19    12    26    1
    20    12    25    1
    21    13    18   ar
    22    13    14   ar
    23    14    15   ar
    24    14    28    1
    25    15    16   ar
    26    15    29    1
    27    16    17   ar
    28    16    20    1
    29    17    19    1
    30    17    18   ar
    31    18    30    1
