@<TRIPOS>MOLECULE
./DFT_K089__PAC_aligned.pdb
 23 24 0 0 0
SMALL
GASTEIGER

@<TRIPOS>ATOM
      1  N         18.2310   20.1660    2.1470 N.ar    1  UNL1       -0.2353
      2  C         17.6040   20.5280    1.0070 C.ar    1  UNL1        0.0777
      3  C         18.1940   20.3360   -0.2330 C.ar    1  UNL1       -0.0031
      4  CA        19.5660   19.9610   -0.2350 C.ar    1  UNL1        0.1511
      5  N         20.2140   19.7350    0.9410 N.ar    1  UNL1       -0.2288
      6  C         19.4920   19.9290    2.0530 C.ar    1  UNL1        0.1175
      7  C         20.2600   19.8090   -1.6080 C.2     1  UNL1        0.3554
      8  O         21.1890   19.0290   -1.8230 O.2     1  UNL1       -0.2434
      9  OXT       19.6330   20.3660   -2.6660 O.3     1  UNL1       -0.4761
     10  C         16.1900   20.9300    1.1280 C.ar    1  UNL1        0.0358
     11  C         15.2090   20.3080    1.9980 C.ar    1  UNL1       -0.0471
     12  C         13.8270   20.7870    2.1090 C.ar    1  UNL1       -0.0257
     13  C         13.3970   21.6370    1.1430 C.ar    1  UNL1        0.1262
     14  C         14.2970   22.3060    0.2360 C.ar    1  UNL1        0.0094
     15  C         15.7070   21.9850    0.2740 C.ar    1  UNL1        0.1353
     16  F         16.4780   22.6550   -0.5290 F       1  UNL1       -0.2047
     17  F         12.1250   21.9060    1.0630 F       1  UNL1       -0.2054
     18  H         17.7800   20.4300   -1.2320 H       1  UNL1        0.0662
     19  H         19.9130   19.5240    2.9700 H       1  UNL1        0.1047
     20  HXT       20.1640   20.4440   -3.4770 H       1  UNL1        0.2955
     21  H         15.5110   19.7550    2.8830 H       1  UNL1        0.0626
     22  H         13.1510   20.5740    2.9320 H       1  UNL1        0.0646
     23  H         13.9500   23.0770   -0.4450 H       1  UNL1        0.0675
@<TRIPOS>BOND
     1     1     6   ar
     2     1     2   ar
     3     2    10    1
     4     2     3   ar
     5     3     4   ar
     6     3    18    1
     7     4     5   ar
     8     4     7    1
     9     5     6   ar
    10     6    19    1
    11     7     8    2
    12     7     9    1
    13     9    20    1
    14    10    11   ar
    15    10    15   ar
    16    11    21    1
    17    11    12   ar
    18    12    22    1
    19    12    13   ar
    20    13    17    1
    21    13    14   ar
    22    14    15   ar
    23    14    23    1
    24    15    16    1
