@<TRIPOS>MOLECULE
./DFT_K005__PAC_aligned.pdb
 23 24 0 0 0
SMALL
GASTEIGER

@<TRIPOS>ATOM
      1  N         18.1570   20.1790    2.1730 N.ar    1  UNL1       -0.2354
      2  C         17.5780   20.5060    1.0520 C.ar    1  UNL1        0.0750
      3  C         18.2450   20.3750   -0.2320 C.ar    1  UNL1       -0.0032
      4  CA        19.5940   19.9070   -0.2800 C.ar    1  UNL1        0.1511
      5  N         20.1900   19.7530    0.9260 N.ar    1  UNL1       -0.2288
      6  C         19.5370   19.9350    2.0410 C.ar    1  UNL1        0.1175
      7  C         20.4940   19.7580   -1.5610 C.2     1  UNL1        0.3554
      8  OXT       21.5940   19.1550   -1.5120 O.2     1  UNL1       -0.2434
      9  O         20.1170   20.4570   -2.6310 O.3     1  UNL1       -0.4761
     10  C         16.1980   21.1460    1.2160 C.ar    1  UNL1        0.0018
     11  C         15.6220   22.0190    0.2630 C.ar    1  UNL1       -0.0525
     12  C         14.4520   22.7060    0.4830 C.ar    1  UNL1       -0.0598
     13  C         13.6060   22.3980    1.5470 C.ar    1  UNL1       -0.0434
     14  C         14.1080   21.4500    2.5030 C.ar    1  UNL1        0.0416
     15  C         15.3700   20.8460    2.3240 C.ar    1  UNL1       -0.0342
     16 CL         13.1790   20.8930    3.8080 Cl      1  UNL1       -0.0835
     17  H         17.6590   20.6740   -1.0960 H       1  UNL1        0.0662
     18  H         20.0670   19.8240    2.9840 H       1  UNL1        0.1047
     19  H         20.7370   20.3400   -3.3700 H       1  UNL1        0.2955
     20  H         16.0760   22.2050   -0.7070 H       1  UNL1        0.0624
     21  H         14.0520   23.3900   -0.2580 H       1  UNL1        0.0618
     22  H         12.6230   22.8430    1.6710 H       1  UNL1        0.0632
     23  H         15.6720   20.1850    3.1310 H       1  UNL1        0.0639
@<TRIPOS>BOND
     1     1     2   ar
     2     1     6   ar
     3     2     3   ar
     4     2    10    1
     5     3    17    1
     6     3     4   ar
     7     4     7    1
     8     4     5   ar
     9     5     6   ar
    10     6    18    1
    11     7     9    1
    12     7     8    2
    13     9    19    1
    14    10    11   ar
    15    10    15   ar
    16    11    20    1
    17    11    12   ar
    18    12    21    1
    19    12    13   ar
    20    13    22    1
    21    13    14   ar
    22    14    15   ar
    23    14    16    1
    24    15    23    1
