@<TRIPOS>MOLECULE
./DFT_K085__PAC_aligned.pdb
 34 36 0 0 0
SMALL
GASTEIGER

@<TRIPOS>ATOM
      1  N         18.1800   20.2090    2.1430 N.ar    1  UNL1       -0.2354
      2  C         17.5430   20.5260    0.9950 C.ar    1  UNL1        0.0750
      3  C         18.2170   20.3510   -0.1970 C.ar    1  UNL1       -0.0032
      4  CA        19.5610   19.9320   -0.2210 C.ar    1  UNL1        0.1511
      5  N         20.2670   19.7600    0.9100 N.ar    1  UNL1       -0.2288
      6  C         19.5320   19.8780    2.0500 C.ar    1  UNL1        0.1175
      7  C         20.3070   19.6790   -1.5080 C.2     1  UNL1        0.3554
      8  OXT       21.4970   19.7240   -1.5940 O.2     1  UNL1       -0.2434
      9  O         19.5360   19.3510   -2.5690 O.3     1  UNL1       -0.4761
     10  C         16.1580   21.0440    1.2240 C.ar    1  UNL1        0.0021
     11  C         15.2450   21.0770    0.1450 C.ar    1  UNL1       -0.0490
     12  C         13.8890   21.4990    0.4300 C.ar    1  UNL1       -0.0178
     13  C         13.3790   21.6690    1.6850 C.ar    1  UNL1        0.1392
     14  C         14.2500   21.5440    2.7740 C.ar    1  UNL1        0.0832
     15  C         15.6190   21.3530    2.5510 C.ar    1  UNL1       -0.0306
     16 CL         13.6110   21.4270    4.4410 Cl      1  UNL1       -0.0797
     17  O         12.1390   22.1580    1.9270 O.3     1  UNL1       -0.4874
     18  C         11.2190   22.4680    0.8640 C.3     1  UNL1        0.1003
     19  C          9.7260   22.9530    1.2430 C.3     1  UNL1       -0.0157
     20  C          9.2990   21.4580    1.2480 C.3     1  UNL1       -0.0464
     21  C         10.5770   21.1860    0.2460 C.3     1  UNL1       -0.0157
     22  H         17.7580   20.5490   -1.1620 H       1  UNL1        0.0662
     23  H         20.0700   19.6030    2.9560 H       1  UNL1        0.1047
     24  H         20.2820   19.2450   -3.1840 H       1  UNL1        0.2955
     25  H         15.4530   20.6700   -0.8410 H       1  UNL1        0.0625
     26  H         13.2150   21.5650   -0.4190 H       1  UNL1        0.0655
     27  H         16.2020   21.1940    3.4540 H       1  UNL1        0.0640
     28  H         11.7450   23.0880    0.1320 H       1  UNL1        0.0733
     29  H          9.6930   23.6020    2.1230 H       1  UNL1        0.0301
     30  H          9.2980   23.4870    0.3890 H       1  UNL1        0.0301
     31  H          9.3330   21.2070    2.3140 H       1  UNL1        0.0268
     32  H          8.3160   21.1300    0.8960 H       1  UNL1        0.0268
     33  H         10.3310   21.3400   -0.8090 H       1  UNL1        0.0301
     34  H         11.1690   20.2670    0.3200 H       1  UNL1        0.0301
@<TRIPOS>BOND
     1     1     2   ar
     2     1     6   ar
     3     2     3   ar
     4     2    10    1
     5     3    22    1
     6     3     4   ar
     7     4     7    1
     8     4     5   ar
     9     5     6   ar
    10     6    23    1
    11     7     9    1
    12     7     8    2
    13     9    24    1
    14    10    11   ar
    15    10    15   ar
    16    11    25    1
    17    11    12   ar
    18    12    26    1
    19    12    13   ar
    20    13    17    1
    21    13    14   ar
    22    14    15   ar
    23    14    16    1
    24    15    27    1
    25    17    18    1
    26    18    21    1
    27    18    28    1
    28    18    19    1
    29    19    30    1
    30    19    20    1
    31    19    29    1
    32    20    32    1
    33    20    21    1
    34    20    31    1
    35    21    33    1
    36    21    34    1
