@<TRIPOS>MOLECULE
DFT_K010_.xyz
 26 27 0 0 0
SMALL
GASTEIGER

@<TRIPOS>ATOM
      1 N           0.0559    1.6538    0.4854 N.ar    1  UNL1       -0.4747
      2 C          -0.0177    0.3802    0.0766 C.ar    1  UNL1        0.3072
      3 C          -1.2618   -0.1719   -0.2516 C.ar    1  UNL1       -0.1706
      4 CA         -2.3755    0.6460   -0.1482 C.ar    1  UNL1        0.3799
      5 N          -2.2970    1.9166    0.2523 N.ar    1  UNL1       -0.5495
      6 C          -1.0773    2.3462    0.5510 C.ar    1  UNL1        0.4749
      7 C          -3.7581    0.1468   -0.4807 C.2     1  UNL1        0.4836
      8 O          -4.7626    0.7966   -0.4141 O.2     1  UNL1       -0.4481
      9 OXT        -3.7415   -1.1519   -0.8744 O.3     1  UNL1       -0.5363
     10 C           1.2461   -0.3864    0.0031 C.ar    1  UNL1       -0.0504
     11 C           1.3203   -1.6508   -0.5873 C.ar    1  UNL1       -0.2303
     12 C           2.5242   -2.3390   -0.6386 C.ar    1  UNL1       -0.1650
     13 C           3.6973   -1.8069   -0.1066 C.ar    1  UNL1        0.0512
     14 C           3.5903   -0.5452    0.4727 C.ar    1  UNL1        0.1536
     15 C           2.4143    0.1678    0.5368 C.ar    1  UNL1       -0.0288
     16 F           4.7059    0.0066    1.0005 F       1  UNL1       -0.1620
     17 C           5.0121   -2.5296   -0.1457 C.3     1  UNL1       -0.0997
     18 H          -1.3713   -1.1958   -0.5650 H       1  UNL1        0.0755
     19 H          -0.9945    3.3743    0.8840 H       1  UNL1        0.0311
     20 HXT        -4.6594   -1.3924   -1.0657 H       1  UNL1        0.4151
     21 H           0.4451   -2.1061   -1.0264 H       1  UNL1        0.1737
     22 H           2.5588   -3.3147   -1.1056 H       1  UNL1        0.1388
     23 H           2.3948    1.1451    0.9933 H       1  UNL1        0.0751
     24 H           5.7648   -1.9488   -0.6815 H       1  UNL1        0.0554
     25 H           5.4011   -2.6942    0.8606 H       1  UNL1        0.0578
     26 H           4.9091   -3.4955   -0.6366 H       1  UNL1        0.0424
@<TRIPOS>BOND
     1     1     6   ar
     2     2     1   ar
     3     3     4   ar
     4     3     2   ar
     5     4     5   ar
     6     5     6   ar
     7     6    19    1
     8     7     8    2
     9     7     4    1
    10     9     7    1
    11    10     2    1
    12    10    15   ar
    13    11    10   ar
    14    12    11   ar
    15    12    13   ar
    16    13    14   ar
    17    14    15   ar
    18    14    16    1
    19    15    23    1
    20    17    13    1
    21    17    25    1
    22    18     3    1
    23    20     9    1
    24    21    11    1
    25    22    12    1
    26    24    17    1
    27    26    17    1
