@<TRIPOS>MOLECULE
DFT_K086_.xyz
 37 38 0 0 0
SMALL
GASTEIGER

@<TRIPOS>ATOM
      1 N           0.0551    1.6540    0.4843 N.ar    1  UNL1       -0.4682
      2 C          -0.0156    0.3779    0.0796 C.ar    1  UNL1        0.2600
      3 C          -1.2620   -0.1707   -0.2540 C.ar    1  UNL1       -0.1520
      4 CA         -2.3750    0.6463   -0.1481 C.ar    1  UNL1        0.3303
      5 N          -2.2984    1.9171    0.2548 N.ar    1  UNL1       -0.5548
      6 C          -1.0776    2.3463    0.5490 C.ar    1  UNL1        0.5126
      7 C          -3.7567    0.1482   -0.4841 C.2     1  UNL1        0.5137
      8 OXT        -4.7619    0.7970   -0.4161 O.2     1  UNL1       -0.4557
      9 O          -3.7413   -1.1496   -0.8826 O.3     1  UNL1       -0.5227
     10 C           1.2456   -0.3856    0.0073 C.2     1  UNL1        0.0099
     11 C           1.2971   -1.7188   -0.4020 C.2     1  UNL1       -0.2815
     12 C           2.4970   -2.4102   -0.4612 C.2     1  UNL1       -0.0871
     13 C           3.7003   -1.7885   -0.1155 C.2     1  UNL1        0.1405
     14 C           3.6453   -0.4453    0.3022 C.2     1  UNL1       -0.0104
     15 C           2.4502    0.2371    0.3605 C.2     1  UNL1        0.0248
     16 CL          5.1234    0.3705    0.7485 Cl      2  UNL2       -0.0905
     17 O           4.9110   -2.3696   -0.1575 O.2     1  UNL1       -0.1791
     18 C           5.0567   -3.7326   -0.6164 C.3     1  UNL1        0.0543
     19 C           6.5547   -3.9484   -0.8326 C.3     1  UNL1       -0.0316
     20 C           7.0733   -4.3711    0.5454 C.3     1  UNL1        0.0107
     21 C           5.9750   -5.3180    1.0533 C.3     1  UNL1       -0.0400
     22 C           4.6525   -4.7480    0.4806 C.3     1  UNL1       -0.0046
     23 H          -1.3730   -1.1892   -0.5838 H       1  UNL1        0.0532
     24 H          -0.9935    3.3755    0.8788 H       1  UNL1        0.0162
     25 H          -4.6594   -1.3865   -1.0769 H       1  UNL1        0.4047
     26 H           0.3964   -2.2457   -0.6806 H       1  UNL1        0.1943
     27 H           2.4931   -3.4426   -0.7727 H       1  UNL1        0.0875
     28 H           2.4350    1.2671    0.6805 H       1  UNL1        0.0427
     29 H           4.4861   -3.8441   -1.5389 H       1  UNL1        0.0620
     30 H           6.6888   -4.7630   -1.5490 H       1  UNL1        0.0356
     31 H           7.0300   -3.0587   -1.2414 H       1  UNL1        0.0151
     32 H           7.1525   -3.4958    1.1920 H       1  UNL1        0.0151
     33 H           8.0547   -4.8427    0.5057 H       1  UNL1        0.0099
     34 H           5.9540   -5.3968    2.1393 H       1  UNL1        0.0176
     35 H           6.1465   -6.3233    0.6634 H       1  UNL1        0.0180
     36 H           4.0696   -4.2406    1.2480 H       1  UNL1        0.0358
     37 H           4.0198   -5.5354    0.0704 H       1  UNL1        0.0136
@<TRIPOS>UNITY_ATOM_ATTR
16 1
charge -1
@<TRIPOS>BOND
     1     1     2   ar
     2     2    10    1
     3     3    23    1
     4     3     2   ar
     5     4     3   ar
     6     5     4   ar
     7     5     6   ar
     8     6     1   ar
     9     7     9    1
    10     7     4    1
    11     8     7    2
    12    10    11    2
    13    10    15    1
    14    11    12    1
    15    12    27    1
    16    12    13    2
    17    13    17    1
    18    14    13    1
    19    15    14    2
    20    17    18    1
    21    18    22    1
    22    19    18    1
    23    19    20    1
    24    20    33    1
    25    20    32    1
    26    20    21    1
    27    21    34    1
    28    22    36    1
    29    22    21    1
    30    24     6    1
    31    25     9    1
    32    26    11    1
    33    28    15    1
    34    29    18    1
    35    30    19    1
    36    31    19    1
    37    35    21    1
    38    37    22    1
