@<TRIPOS>MOLECULE
DFT_K022_.xyz
 27 27 0 0 0
SMALL
GASTEIGER

@<TRIPOS>ATOM
      1 N           0.0564    1.6539    0.4852 N.ar    1  UNL1       -0.4616
      2 C          -0.0200    0.3821    0.0758 C.ar    1  UNL1        0.3226
      3 C          -1.2616   -0.1732   -0.2505 C.ar    1  UNL1       -0.2283
      4 CA         -2.3759    0.6459   -0.1488 C.ar    1  UNL1        0.4201
      5 N          -2.2954    1.9156    0.2513 N.ar    1  UNL1       -0.5496
      6 C          -1.0768    2.3467    0.5526 C.ar    1  UNL1        0.4657
      7 C          -3.7594    0.1490   -0.4843 C.2     1  UNL1        0.4726
      8 O          -4.7597    0.8052   -0.4291 O.2     1  UNL1       -0.4448
      9 OXT        -3.7437   -1.1528   -0.8654 O.3     1  UNL1       -0.5291
     10 C           1.2465   -0.3846   -0.0005 C.2     1  UNL1       -0.0091
     11 C           1.3325   -1.6106   -0.6658 C.2     1  UNL1       -0.2302
     12 C           2.5326   -2.2999   -0.7236 C.2     1  UNL1       -0.0552
     13 C           3.6604   -1.7830   -0.1035 C.2     1  UNL1        0.1112
     14 C           3.5933   -0.5553    0.5539 C.2     1  UNL1        0.0087
     15 C           2.3949    0.1372    0.5993 C.2     1  UNL1        0.0133
     16 CL          5.0071    0.1180    1.3092 Cl      2  UNL2       -0.0455
     17 O           4.8872   -2.4306   -0.2164 O.2     1  UNL1       -0.1837
     18 C           5.1072   -3.5419    0.5321 C.3     1  UNL1        0.3305
     19 F           6.3741   -3.8967    0.3612 F       1  UNL1       -0.0881
     20 F           4.8826   -3.3349    1.8366 F       1  UNL1       -0.1026
     21 F           4.3260   -4.5743    0.1583 F       1  UNL1       -0.1105
     22 H          -1.3711   -1.1991   -0.5587 H       1  UNL1        0.0909
     23 H          -0.9947    3.3741    0.8870 H       1  UNL1        0.0369
     24 HXT        -4.6605   -1.3948   -1.0610 H       1  UNL1        0.4167
     25 H           0.4726   -2.0286   -1.1673 H       1  UNL1        0.1632
     26 H           2.6084   -3.2374   -1.2534 H       1  UNL1        0.1325
     27 H           2.3419    1.0902    1.1017 H       1  UNL1        0.0536
@<TRIPOS>UNITY_ATOM_ATTR
16 1
charge -1
@<TRIPOS>BOND
     1     1     6   ar
     2     2     1   ar
     3     3     4   ar
     4     3     2   ar
     5     4     5   ar
     6     5     6   ar
     7     6    23    1
     8     7     8    2
     9     7     4    1
    10     9     7    1
    11    10     2    1
    12    10    15    1
    13    11    10    2
    14    12    11    1
    15    12    13    2
    16    13    14    1
    17    15    14    2
    18    15    27    1
    19    17    13    1
    20    17    18    1
    21    18    20    1
    22    19    18    1
    23    21    18    1
    24    22     3    1
    25    24     9    1
    26    25    11    1
    27    26    12    1
