@<TRIPOS>MOLECULE
DFT_K052_.xyz
 23 23 0 0 0
SMALL
GASTEIGER

@<TRIPOS>ATOM
      1 N           0.0558    1.6539    0.4854 N.ar    1  UNL1       -0.4860
      2 C          -0.0177    0.3804    0.0763 C.ar    1  UNL1        0.3364
      3 C          -1.2618   -0.1721   -0.2512 C.ar    1  UNL1       -0.2317
      4 CA         -2.3756    0.6463   -0.1483 C.ar    1  UNL1        0.4140
      5 N          -2.2968    1.9164    0.2521 N.ar    1  UNL1       -0.5583
      6 C          -1.0772    2.3462    0.5513 C.ar    1  UNL1        0.4829
      7 C          -3.7590    0.1477   -0.4808 C.2     1  UNL1        0.4761
      8 O          -4.7627    0.7977   -0.4096 O.2     1  UNL1       -0.4465
      9 OXT        -3.7424   -1.1491   -0.8798 O.3     1  UNL1       -0.5323
     10 C           1.2466   -0.3856    0.0043 C.2     1  UNL1       -0.0338
     11 C           1.3240   -1.6320   -0.6256 C.2     1  UNL1       -0.1846
     12 C           2.5178   -2.3346   -0.6814 C.2     1  UNL1       -0.0386
     13 C           3.6535   -1.7896   -0.0978 C.2     1  UNL1       -0.0300
     14 C           3.6074   -0.5522    0.5320 C.2     1  UNL1       -0.0490
     15 C           2.4095    0.1417    0.5765 C.2     1  UNL1       -0.0270
     16 CL          5.1612   -2.6713   -0.1603 Cl      2  UNL2       -0.0782
     17 H          -1.3725   -1.1969   -0.5622 H       1  UNL1        0.0916
     18 H          -0.9948    3.3742    0.8846 H       1  UNL1        0.0305
     19 HXT        -4.6604   -1.3896   -1.0712 H       1  UNL1        0.4154
     20 H           0.4541   -2.0653   -1.0973 H       1  UNL1        0.1520
     21 H           2.5701   -3.2936   -1.1754 H       1  UNL1        0.1143
     22 H           4.4995   -0.1409    0.9806 H       1  UNL1        0.1135
     23 H           2.3596    1.1068    1.0575 H       1  UNL1        0.0694
@<TRIPOS>UNITY_ATOM_ATTR
16 1
charge -1
@<TRIPOS>BOND
     1     1     6   ar
     2     2     1   ar
     3     3     4   ar
     4     3     2   ar
     5     4     5   ar
     6     5     6   ar
     7     6    18    1
     8     7     8    2
     9     7     4    1
    10     9     7    1
    11    10     2    1
    12    10    15    1
    13    11    10    2
    14    12    11    1
    15    12    13    2
    16    13    14    1
    17    14    15    2
    18    14    22    1
    19    15    23    1
    20    17     3    1
    21    19     9    1
    22    20    11    1
    23    21    12    1
