@<TRIPOS>MOLECULE
DFT_K092_.xyz
 43 44 0 0 0
SMALL
GASTEIGER

@<TRIPOS>ATOM
      1 O           0.0035    7.4510    2.2798 O.2     1  UNL1       -0.1095
      2 C           1.2993    7.9310    2.6594 C.3     1  UNL1        0.0047
      3 C           1.1856    9.3839    3.0934 C.3     1  UNL1       -0.0381
      4 N           1.0335   10.3111    1.9776 N.3     1  UNL1       -0.3608
      5 C           1.6849   11.6120    2.1570 C.3     1  UNL1       -0.0337
      6 C           0.8685   12.5803    3.0100 C.3     1  UNL1        0.0291
      7 O          -0.4369   12.7468    2.4726 O.3     1  UNL1       -0.3338
      8 C          -1.1231   11.5020    2.3688 C.3     1  UNL1        0.0083
      9 C          -0.3464   10.5112    1.5060 C.3     1  UNL1        0.0263
     10 C          -0.1348    6.1777    1.8647 C.2     1  UNL1        0.1241
     11 C           0.9109    5.2585    1.7576 C.2     1  UNL1       -0.0761
     12 C           0.6738    3.9631    1.3240 C.2     1  UNL1       -0.2915
     13 C          -0.6094    3.5358    0.9813 C.2     1  UNL1       -0.0021
     14 C          -0.8951    2.1630    0.5176 C.ar    1  UNL1        0.3086
     15 N          -2.1719    1.8530    0.2526 N.ar    1  UNL1       -0.4531
     16 C          -2.4347    0.6189   -0.1655 C.ar    1  UNL1        0.4484
     17 N          -1.5658   -0.3660   -0.3547 N.ar    1  UNL1       -0.5384
     18 CA         -0.2921   -0.0623   -0.0931 C.ar    1  UNL1        0.3562
     19 C           0.1004    1.1915    0.3449 C.ar    1  UNL1       -0.1802
     20 C           0.7030   -1.1739   -0.3046 C.2     1  UNL1        0.4958
     21 OXT         0.4352   -2.2805   -0.6780 O.2     1  UNL1       -0.4536
     22 O           1.9693   -0.7770   -0.0178 O.3     1  UNL1       -0.5186
     23 C          -1.6586    4.4586    1.0885 C.2     1  UNL1        0.0087
     24 C          -1.4277    5.7466    1.5184 C.2     1  UNL1       -0.0117
     25 CL         -2.7635    6.8657    1.6389 Cl      2  UNL2       -0.0870
     26 H           1.6732    7.3259    3.4914 H       1  UNL1        0.0508
     27 H           1.9856    7.8510    1.8135 H       1  UNL1        0.0782
     28 H           0.3908    9.4561    3.8483 H       1  UNL1        0.0531
     29 H           2.1201    9.6215    3.6055 H       1  UNL1        0.1100
     30 H           1.8188   12.0567    1.1667 H       1  UNL1        0.0883
     31 H           2.6776   11.4662    2.5872 H       1  UNL1        0.0592
     32 H           0.8020   12.2214    4.0475 H       1  UNL1        0.0570
     33 H           1.3266   13.5697    3.0235 H       1  UNL1        0.0718
     34 H          -2.0940   11.7218    1.9252 H       1  UNL1        0.0852
     35 H          -1.2960   11.0925    3.3738 H       1  UNL1        0.0727
     36 H          -0.2945   10.9032    0.4866 H       1  UNL1        0.0872
     37 H          -0.8606    9.5538    1.4674 H       1  UNL1        0.0217
     38 H           1.9166    5.5534    2.0126 H       1  UNL1        0.0956
     39 H           1.5151    3.2889    1.2615 H       1  UNL1        0.1973
     40 H          -3.4742    0.3934   -0.3742 H       1  UNL1        0.0355
     41 H           1.1403    1.3914    0.5381 H       1  UNL1        0.0579
     42 H           2.5388   -1.5431   -0.1786 H       1  UNL1        0.4053
     43 H          -2.6589    4.1488    0.8299 H       1  UNL1        0.0512
@<TRIPOS>UNITY_ATOM_ATTR
25 1
charge -1
@<TRIPOS>BOND
     1     1    10    1
     2     1     2    1
     3     2    27    1
     4     2    26    1
     5     3     2    1
     6     3    29    1
     7     4     5    1
     8     4     3    1
     9     5    31    1
    10     6    33    1
    11     6    32    1
    12     6     5    1
    13     7     6    1
    14     8    35    1
    15     8     7    1
    16     8     9    1
    17     9     4    1
    18    10    11    2
    19    11    38    1
    20    12    11    1
    21    12    39    1
    22    13    12    2
    23    14    13    1
    24    14    19   ar
    25    15    14   ar
    26    16    15   ar
    27    16    17   ar
    28    17    18   ar
    29    18    19   ar
    30    18    20    1
    31    19    41    1
    32    20    22    1
    33    21    20    2
    34    22    42    1
    35    23    24    2
    36    23    13    1
    37    24    10    1
    38    28     3    1
    39    30     5    1
    40    34     8    1
    41    36     9    1
    42    37     9    1
    43    40    16    1
    44    43    23    1
