@<TRIPOS>MOLECULE
DFT_K099_.xyz
 24 23 0 0 0
SMALL
GASTEIGER

@<TRIPOS>ATOM
      1 N           0.0440    1.6476    0.4833 N.ar    1  UNK1       -0.4698
      2 C          -0.0009    0.3808    0.0767 C.ar    1  UNK1        0.3522
      3 C          -1.2606   -0.1892   -0.2557 C.ar    1  UNK1        0.0206
      4 C          -2.3813    0.6517   -0.1463 C.ar    1  UNK1        0.3001
      5 N          -2.2924    1.9242    0.2535 N.ar    1  UNK1       -0.5115
      6 C          -1.0822    2.3559    0.5541 C.ar    1  UNK1        0.3866
      7 C          -3.7214    0.1070   -0.4779 C.2     1  UNK1        0.5009
      8 O          -3.8987   -1.0509   -0.8338 O.2     1  UNK1       -0.4930
      9 O          -4.7231    0.9734   -0.3586 O.3     1  UNK1       -0.4978
     10 O          -1.3563   -1.4673   -0.6357 O.3     1  UNK1       -0.4294
     11 C           1.2877   -0.3498    0.0264 C.2     1  UNK1       -0.0352
     12 C           1.4993   -1.5056   -0.7348 C.2     1  UNK1       -0.1322
     13 C           2.7440   -2.1132   -0.7578 C.2     1  UNK1       -0.0700
     14 C           3.8007   -1.5978   -0.0182 C.2     1  UNK1        0.0154
     15 C           3.6014   -0.4467    0.7468 C.2     1  UNK1        0.0391
     16 C           2.3611    0.1677    0.7594 C.2     1  UNK1       -0.0161
     17 CL          4.8897    0.2440    1.6942 Cl      1  UNL1       -0.0711
     18 CL          5.3398   -2.4030   -0.0689 Cl      2  UNL2       -0.0642
     19 H          -0.9907    3.3821    0.8867 H       1  UNK1        0.0555
     20 H          -5.5356    0.5029   -0.5991 H       1  UNK1        0.4297
     21 H          -2.3122   -1.6510   -0.8000 H       1  UNK1        0.3770
     22 H           0.7006   -1.9310   -1.3168 H       1  UNK1        0.1312
     23 H           2.9059   -2.9997   -1.3530 H       1  UNK1        0.1141
     24 H           2.2198    1.0656    1.3395 H       1  UNK1        0.0678
@<TRIPOS>UNITY_ATOM_ATTR
17 1
charge -1
18 1
charge -1
@<TRIPOS>BOND
     1     1     6   ar
     2     2     1   ar
     3     3     4   ar
     4     3     2   ar
     5     4     5   ar
     6     5     6   ar
     7     6    19    1
     8     7     9    1
     9     7     4    1
    10     8     7    2
    11    10     3    1
    12    11     2    1
    13    11    16    1
    14    12    11    2
    15    13    12    1
    16    13    14    2
    17    14    15    1
    18    15    16    2
    19    16    24    1
    20    20     9    1
    21    21    10    1
    22    22    12    1
    23    23    13    1
