@<TRIPOS>MOLECULE
DFT_K007_.xyz
 31 32 0 0 0
SMALL
GASTEIGER

@<TRIPOS>ATOM
      1 C           3.1375    0.4611    0.4318 C.2     1  UNL1        0.2558
      2 C           3.6761    1.5075    1.1953 C.2     1  UNL1       -0.0059
      3 C           2.8563    2.5082    1.6904 C.2     1  UNL1       -0.1197
      4 C           1.4935    2.4889    1.4387 C.2     1  UNL1       -0.0571
      5 C           0.9337    1.4557    0.6868 C.2     1  UNL1       -0.0690
      6 C           1.7685    0.4495    0.1868 C.2     1  UNL1       -0.2055
      7 C          -0.5240    1.4433    0.4303 C.ar    1  UNL1        0.3951
      8 C          -1.1989    0.3281   -0.0819 C.ar    1  UNL1       -0.2527
      9 CA         -2.5653    0.4392   -0.2845 C.ar    1  UNL1        0.3823
     10 N          -3.2432    1.5536   -0.0040 N.ar    1  UNL1       -0.5558
     11 C          -2.5197    2.5515    0.4896 C.ar    1  UNL1        0.4804
     12 N          -1.2106    2.5572    0.7190 N.ar    1  UNL1       -0.5055
     13 C          -3.3804   -0.7027   -0.8349 C.2     1  UNL1        0.4955
     14 O          -4.5603   -0.6746   -1.0396 O.2     1  UNL1       -0.4507
     15 OXT        -2.6130   -1.7954   -1.0811 O.3     1  UNL1       -0.5210
     16 CL          5.3867    1.5503    1.5178 Cl      2  UNL2       -0.0891
     17 O           4.0044   -0.4796   -0.0223 O.2     1  UNL1       -0.2196
     18 C           3.4986   -1.5802   -0.7373 C.3     1  UNL1        0.0344
     19 C           3.3079   -1.4577   -2.2208 C.3     1  UNL1       -0.1262
     20 C           4.4705   -2.2393   -1.6499 C.3     1  UNL1       -0.3480
     21 H           3.2954    3.3026    2.2762 H       1  UNL1        0.1320
     22 H           0.8547    3.2699    1.8198 H       1  UNL1        0.0833
     23 H           1.3652   -0.3407   -0.4248 H       1  UNL1        0.0949
     24 H          -0.6947   -0.5967   -0.3044 H       1  UNL1        0.0978
     25 H          -3.0546    3.4630    0.7304 H       1  UNL1        0.0364
     26 HXT        -3.2090   -2.4755   -1.4267 H       1  UNL1        0.4065
     27 H           2.8147   -2.1949   -0.1631 H       1  UNL1        0.1281
     28 H           2.4916   -1.9952   -2.6826 H       1  UNL1        0.0830
     29 H           3.5312   -0.4973   -2.6624 H       1  UNL1        0.1103
     30 H           5.4493   -1.7869   -1.7164 H       1  UNL1        0.1627
     31 H           4.4583   -3.3174   -1.7142 H       1  UNL1        0.1473
@<TRIPOS>UNITY_ATOM_ATTR
16 1
charge -1
@<TRIPOS>BOND
     1     1     6    1
     2     1    17    1
     3     2     1    2
     4     3     4    2
     5     3     2    1
     6     4     5    1
     7     5     7    1
     8     5     6    2
     9     6    23    1
    10     7     8   ar
    11     8     9   ar
    12     8    24    1
    13     9    13    1
    14    10     9   ar
    15    11    10   ar
    16    12    11   ar
    17    12     7   ar
    18    13    14    2
    19    13    15    1
    20    15    26    1
    21    17    18    1
    22    18    27    1
    23    19    28    1
    24    19    20    1
    25    19    18    1
    26    20    18    1
    27    20    31    1
    28    21     3    1
    29    22     4    1
    30    25    11    1
    31    29    19    1
    32    30    20    1
