@<TRIPOS>MOLECULE
DFT_K075_.xyz
 30 29 0 0 0
SMALL
GASTEIGER

@<TRIPOS>ATOM
      1 N           0.0513    1.6592    0.4903 N.ar    1  UNL1       -0.4962
      2 C          -0.0252    0.3908    0.0601 C.ar    1  UNL1        0.2420
      3 C          -1.2640   -0.2004   -0.2425 C.ar    1  UNL1        0.0056
      4 CA         -2.3712    0.6508   -0.1499 C.ar    1  UNL1        0.3729
      5 N          -2.2898    1.9192    0.2426 N.ar    1  UNL1       -0.5151
      6 C          -1.0745    2.3514    0.5651 C.ar    1  UNL1        0.4075
      7 C          -3.7793    0.1936   -0.4619 C.2     1  UNL1        0.4039
      8 O          -4.6846    0.2142    0.3227 O.2     1  UNL1       -0.4223
      9 OXT        -3.8994   -0.1779   -1.7527 O.3     1  UNL1       -0.4978
     10 C          -1.4541   -1.6692   -0.5800 C.3     1  UNL1       -0.0342
     11 O          -2.6204   -2.2153    0.0059 O.3     1  UNL1       -0.2885
     12 C          -2.5042   -2.4834    1.3957 C.3     1  UNL1       -0.0586
     13 C           1.2795   -0.3089   -0.0554 C.2     1  UNL1       -0.0019
     14 C           2.2596   -0.1016    0.9194 C.2     1  UNL1       -0.1493
     15 C           3.4909   -0.7237    0.8235 C.2     1  UNL1       -0.0579
     16 C           3.7828   -1.5484   -0.2593 C.2     1  UNL1        0.0168
     17 C           2.8232   -1.7410   -1.2518 C.2     1  UNL1        0.0154
     18 C           1.5815   -1.1265   -1.1426 C.2     1  UNL1       -0.0028
     19 CL          3.1427   -2.7348   -2.6447 Cl      2  UNL2       -0.0630
     20 CL          5.3438   -2.3069   -0.3447 Cl      3  UNL3       -0.0596
     21 H          -0.9987    3.3737    0.9167 H       1  UNL1        0.0642
     22 HXT        -4.8146   -0.4708   -1.8806 H       1  UNL1        0.4194
     23 H          -1.5807   -1.7962   -1.6560 H       1  UNL1        0.0916
     24 H          -0.5749   -2.2413   -0.2744 H       1  UNL1        0.0749
     25 H          -1.6886   -3.1880    1.5907 H       1  UNL1        0.0586
     26 H          -2.3358   -1.5719    1.9766 H       1  UNL1        0.0587
     27 H          -3.4459   -2.9272    1.7081 H       1  UNL1        0.1050
     28 H           2.0480    0.5557    1.7494 H       1  UNL1        0.1362
     29 H           4.2430   -0.5741    1.5839 H       1  UNL1        0.1162
     30 H           0.8703   -1.2703   -1.9419 H       1  UNL1        0.0584
@<TRIPOS>UNITY_ATOM_ATTR
19 1
charge -1
20 1
charge -1
@<TRIPOS>BOND
     1     1     6   ar
     2     1     2   ar
     3     2     3   ar
     4     3    10    1
     5     4     3   ar
     6     4     7    1
     7     5     4   ar
     8     6     5   ar
     9     7     8    2
    10     9    22    1
    11     9     7    1
    12    10    24    1
    13    10    11    1
    14    11    12    1
    15    12    26    1
    16    12    25    1
    17    12    27    1
    18    13     2    1
    19    13    14    2
    20    14    28    1
    21    15    14    1
    22    15    29    1
    23    16    15    2
    24    17    18    2
    25    17    16    1
    26    18    13    1
    27    21     6    1
    28    23    10    1
    29    30    18    1
