@<TRIPOS>MOLECULE
DFT_K102_.xyz
 25 24 0 0 0
SMALL
GASTEIGER

@<TRIPOS>ATOM
      1 N           0.0514    1.6519    0.4899 N.ar    1  UNL1       -0.5179
      2 C          -0.0122    0.3980    0.0676 C.ar    1  UNL1        0.3868
      3 C          -1.2657   -0.2078   -0.2513 C.ar    1  UNL1       -0.0158
      4 CA         -2.3875    0.6483   -0.1488 C.ar    1  UNL1        0.3499
      5 N          -2.2802    1.9208    0.2459 N.ar    1  UNL1       -0.5319
      6 C          -1.0793    2.3599    0.5623 C.ar    1  UNL1        0.4006
      7 C          -3.7526    0.1436   -0.4533 C.2     1  UNL1        0.4992
      8 OXT        -4.0070   -1.0107   -0.7495 O.2     1  UNL1       -0.5073
      9 O          -4.7072    1.0783   -0.3675 O.3     1  UNL1       -0.5147
     10 N          -1.3653   -1.5082   -0.6356 N.pl3   1  UNL1       -0.6388
     11 C           1.2794   -0.3318   -0.0200 C.2     1  UNL1       -0.0495
     12 C           1.6067   -1.1670   -1.0927 C.2     1  UNL1       -0.0714
     13 C           2.8480   -1.7804   -1.1556 C.2     1  UNL1       -0.0915
     14 C           3.7835   -1.5854   -0.1470 C.2     1  UNL1        0.0239
     15 C           3.4698   -0.7480    0.9255 C.2     1  UNL1        0.0501
     16 C           2.2328   -0.1238    0.9775 C.2     1  UNL1       -0.0754
     17 CL          4.6070   -0.4625    2.2116 Cl      2  UNL2       -0.0654
     18 CL          5.3218   -2.3875   -0.2569 Cl      3  UNL3       -0.0649
     19 H          -0.9941    3.3833    0.9045 H       1  UNL1        0.0484
     20 H          -5.5413    0.6336   -0.5794 H       1  UNL1        0.4203
     21 H          -0.6034   -2.1302   -0.4335 H       1  UNL1        0.2950
     22 H          -2.2992   -1.8865   -0.7050 H       1  UNL1        0.3539
     23 H           0.9077   -1.3161   -1.9028 H       1  UNL1        0.1045
     24 H           3.1050   -2.4119   -1.9932 H       1  UNL1        0.1112
     25 H           2.0087    0.5420    1.7965 H       1  UNL1        0.1006
@<TRIPOS>UNITY_ATOM_ATTR
17 1
charge -1
18 1
charge -1
@<TRIPOS>BOND
     1     1     6   ar
     2     2     1   ar
     3     3     4   ar
     4     3     2   ar
     5     4     5   ar
     6     5     6   ar
     7     6    19    1
     8     7     9    1
     9     7     4    1
    10     8     7    2
    11    10    22    1
    12    10     3    1
    13    10    21    1
    14    11     2    1
    15    11    16    1
    16    12    11    2
    17    13    12    1
    18    13    14    2
    19    14    15    1
    20    15    16    2
    21    16    25    1
    22    20     9    1
    23    23    12    1
    24    24    13    1
