@<TRIPOS>MOLECULE
DFT_K012_.xyz
 27 27 0 0 0
SMALL
GASTEIGER

@<TRIPOS>ATOM
      1 N           0.0554    1.6535    0.4857 N.ar    1  UNL1       -0.4275
      2 C          -0.0176    0.3803    0.0764 C.ar    1  UNL1        0.2984
      3 C          -1.2616   -0.1720   -0.2518 C.ar    1  UNL1       -0.1961
      4 CA         -2.3755    0.6462   -0.1478 C.ar    1  UNL1        0.3803
      5 N          -2.2970    1.9166    0.2522 N.ar    1  UNL1       -0.5290
      6 C          -1.0771    2.3464    0.5509 C.ar    1  UNL1        0.4303
      7 C          -3.7586    0.1465   -0.4789 C.2     1  UNL1        0.4885
      8 O          -4.7625    0.7967   -0.4115 O.2     1  UNL1       -0.4517
      9 OXT        -3.7420   -1.1523   -0.8717 O.3     1  UNL1       -0.5308
     10 C           1.2458   -0.3878    0.0049 C.2     1  UNL1       -0.0124
     11 C           1.3190   -1.6507   -0.5904 C.2     1  UNL1       -0.2594
     12 C           2.5187   -2.3405   -0.6364 C.2     1  UNL1       -0.0704
     13 C           3.6800   -1.7984   -0.0918 C.2     1  UNL1        0.1458
     14 C           3.6083   -0.5281    0.4925 C.2     1  UNL1        0.0289
     15 C           2.4128    0.1657    0.5400 C.2     1  UNL1       -0.0013
     16 CL          5.0502    0.2091    1.1489 Cl      2  UNL2       -0.0692
     17 O           4.8553   -2.4793   -0.2056 O.2     1  UNL1       -0.2812
     18 C           5.2625   -3.2237    0.9492 C.3     1  UNL1       -0.0193
     19 H          -1.3724   -1.1958   -0.5653 H       1  UNL1        0.0791
     20 H          -0.9944    3.3745    0.8838 H       1  UNL1        0.0383
     21 HXT        -4.6600   -1.3930   -1.0632 H       1  UNL1        0.4133
     22 H           0.4458   -2.1018   -1.0378 H       1  UNL1        0.1759
     23 H           2.5840   -3.3101   -1.1100 H       1  UNL1        0.1232
     24 H           2.3738    1.1472    0.9857 H       1  UNL1        0.0405
     25 H           6.2101   -3.6883    0.6900 H       1  UNL1        0.0919
     26 H           5.4008   -2.5715    1.8124 H       1  UNL1        0.0542
     27 H           4.5278   -3.9970    1.1861 H       1  UNL1        0.0599
@<TRIPOS>UNITY_ATOM_ATTR
16 1
charge -1
@<TRIPOS>BOND
     1     1     6   ar
     2     2     1   ar
     3     3     4   ar
     4     3     2   ar
     5     4     5   ar
     6     5     6   ar
     7     6    20    1
     8     7     8    2
     9     7     4    1
    10     9     7    1
    11    10     2    1
    12    10    15    1
    13    11    10    2
    14    12    11    1
    15    12    13    2
    16    13    14    1
    17    14    15    2
    18    15    24    1
    19    17    13    1
    20    17    18    1
    21    18    27    1
    22    18    26    1
    23    19     3    1
    24    21     9    1
    25    22    11    1
    26    23    12    1
    27    25    18    1
