@<TRIPOS>MOLECULE
DFT_K085_.xyz
 34 35 0 0 0
SMALL
GASTEIGER

@<TRIPOS>ATOM
      1 N           0.0557    1.6539    0.4849 N.ar    1  UNL1       -0.4854
      2 C          -0.0174    0.3804    0.0759 C.ar    1  UNL1        0.3338
      3 C          -1.2620   -0.1723   -0.2505 C.ar    1  UNL1       -0.2256
      4 CA         -2.3753    0.6463   -0.1487 C.ar    1  UNL1        0.3909
      5 N          -2.2970    1.9169    0.2517 N.ar    1  UNL1       -0.5595
      6 C          -1.0775    2.3459    0.5522 C.ar    1  UNL1        0.4887
      7 C          -3.7574    0.1486   -0.4855 C.2     1  UNL1        0.4960
      8 O          -4.7580    0.8061   -0.4421 O.2     1  UNL1       -0.4532
      9 OXT        -3.7448   -1.1573   -0.8541 O.3     1  UNL1       -0.5335
     10 C           1.2460   -0.3853   -0.0024 C.2     1  UNL1       -0.0143
     11 C           1.3202   -1.6449   -0.6043 C.2     1  UNL1       -0.2550
     12 C           2.5220   -2.3294   -0.6637 C.2     1  UNL1       -0.0527
     13 C           3.6869   -1.7885   -0.1236 C.2     1  UNL1        0.1535
     14 C           3.6068   -0.5327    0.4932 C.2     1  UNL1       -0.0028
     15 C           2.4110    0.1597    0.5456 C.2     1  UNL1        0.0050
     16 CL          5.0252    0.1646    1.2405 Cl      2  UNL2       -0.0733
     17 O           4.8363   -2.5187   -0.1455 O.2     1  UNL1       -0.2905
     18 C           5.8331   -2.1434   -1.1057 C.3     1  UNL1        0.0703
     19 C           7.2007   -2.7957   -0.8796 C.3     1  UNL1       -0.0506
     20 C           7.3160   -2.9507   -2.4200 C.3     1  UNL1       -0.0632
     21 C           5.7752   -2.7842   -2.5105 C.3     1  UNL1       -0.0356
     22 H          -1.3725   -1.1969   -0.5619 H       1  UNL1        0.0905
     23 H          -0.9947    3.3734    0.8868 H       1  UNL1        0.0297
     24 HXT        -4.6618   -1.3961   -1.0515 H       1  UNL1        0.4133
     25 H           0.4454   -2.0972   -1.0478 H       1  UNL1        0.1659
     26 H           2.5826   -3.3039   -1.1273 H       1  UNL1        0.1100
     27 H           2.3668    1.1272    1.0206 H       1  UNL1        0.0537
     28 H           5.9011   -1.0566   -1.1577 H       1  UNL1        0.0815
     29 H           7.0758   -3.7614   -0.3904 H       1  UNL1        0.0590
     30 H           7.9559   -2.2189   -0.3499 H       1  UNL1        0.0293
     31 H           7.8455   -2.1161   -2.8772 H       1  UNL1        0.0392
     32 H           7.7382   -3.8796   -2.7963 H       1  UNL1        0.0238
     33 H           5.2707   -3.7489   -2.4670 H       1  UNL1        0.0542
     34 H           5.3619   -2.1951   -3.3273 H       1  UNL1        0.0066
@<TRIPOS>UNITY_ATOM_ATTR
16 1
charge -1
@<TRIPOS>BOND
     1     2    10    1
     2     2     1   ar
     3     3     4   ar
     4     3     2   ar
     5     4     5   ar
     6     5     6   ar
     7     6     1   ar
     8     6    23    1
     9     7     4    1
    10     8     7    2
    11     9     7    1
    12    10    15    2
    13    11    12    2
    14    11    10    1
    15    12    13    1
    16    13    17    1
    17    13    14    2
    18    15    14    1
    19    15    27    1
    20    18    17    1
    21    18    19    1
    22    18    28    1
    23    19    30    1
    24    20    31    1
    25    20    19    1
    26    21    20    1
    27    21    18    1
    28    22     3    1
    29    24     9    1
    30    25    11    1
    31    26    12    1
    32    29    19    1
    33    32    20    1
    34    33    21    1
    35    34    21    1
