@<TRIPOS>MOLECULE
DFT_K124_.xyz
 21 20 0 0 0
SMALL
GASTEIGER

@<TRIPOS>ATOM
      1 N           0.0528    1.6530    0.4851 N.ar    1  UNL1       -0.4255
      2 C          -0.0183    0.3789    0.0750 C.ar    1  UNL1        0.3139
      3 C          -1.2592   -0.1768   -0.2519 C.ar    1  UNL1       -0.2379
      4 C          -2.3715    0.6471   -0.1472 C.ar    1  UNL1        0.4102
      5 N          -2.3002    1.9214    0.2525 N.ar    1  UNL1       -0.5014
      6 C          -1.0770    2.3474    0.5522 C.ar    1  UNL1        0.4087
      7 C          -3.6755    0.1295   -0.4735 C.1     1  UNL1        0.2092
      8 N          -4.6996   -0.3208   -0.7435 N.1     1  UNL1       -0.3614
      9 C           1.2460   -0.3858    0.0008 C.2     1  UNL1       -0.0210
     10 C           1.3314   -1.6234   -0.6441 C.2     1  UNL1       -0.1848
     11 C           2.5308   -2.3112   -0.6935 C.2     1  UNL1       -0.0459
     12 C           3.6711   -1.7834   -0.0971 C.2     1  UNL1        0.0055
     13 C           3.5985   -0.5464    0.5475 C.2     1  UNL1        0.0397
     14 C           2.3966    0.1420    0.5892 C.2     1  UNL1        0.0246
     15 CL          4.9949    0.1579    1.3079 Cl      2  UNL2       -0.0565
     16 CL          5.1539   -2.6812   -0.1776 Cl      3  UNL3       -0.0520
     17 H          -1.3741   -1.2031   -0.5611 H       1  UNL1        0.1161
     18 H          -0.9946    3.3749    0.8861 H       1  UNL1        0.0564
     19 H           0.4706   -2.0569   -1.1313 H       1  UNL1        0.1459
     20 H           2.5969   -3.2635   -1.1981 H       1  UNL1        0.1148
     21 H           2.3458    1.1001    1.0820 H       1  UNL1        0.0415
@<TRIPOS>UNITY_ATOM_ATTR
15 1
charge -1
16 1
charge -1
@<TRIPOS>BOND
     1     1     6   ar
     2     2     1   ar
     3     3     4   ar
     4     3     2   ar
     5     4     5   ar
     6     5     6   ar
     7     6    18    1
     8     7     4    1
     9     8     7    3
    10     9     2    1
    11     9    14    1
    12    10     9    2
    13    11    10    1
    14    11    12    2
    15    12    13    1
    16    13    14    2
    17    14    21    1
    18    17     3    1
    19    19    10    1
    20    20    11    1
