@<TRIPOS>MOLECULE
DFT_K051_.xyz
 26 25 0 0 0
SMALL
GASTEIGER

@<TRIPOS>ATOM
      1 N           0.0493    1.6592    0.4913 N.ar    1  UNL1       -0.5446
      2 C          -0.0261    0.3956    0.0533 C.ar    1  UNL1        0.3429
      3 C          -1.2661   -0.2096   -0.2396 C.ar    1  UNL1       -0.0672
      4 CA         -2.3693    0.6495   -0.1477 C.ar    1  UNL1        0.3690
      5 N          -2.2850    1.9236    0.2353 N.ar    1  UNL1       -0.5407
      6 C          -1.0761    2.3528    0.5730 C.ar    1  UNL1        0.4798
      7 C          -3.7759    0.1816   -0.4353 C.2     1  UNL1        0.4494
      8 O          -4.2590   -0.8410   -0.0184 O.2     1  UNL1       -0.4472
      9 OXT        -4.4459    1.0558   -1.2019 O.3     1  UNL1       -0.5069
     10 C          -1.4123   -1.6650   -0.6004 C.3     1  UNL1       -0.1934
     11 C           1.2858   -0.2941   -0.0660 C.2     1  UNL1       -0.0185
     12 C           2.2538   -0.0973    0.9226 C.2     1  UNL1       -0.1650
     13 C           3.4958   -0.6977    0.8237 C.2     1  UNL1       -0.0412
     14 C           3.8108   -1.4892   -0.2767 C.2     1  UNL1        0.0122
     15 C           2.8625   -1.6719   -1.2818 C.2     1  UNL1        0.0237
     16 C           1.6098   -1.0816   -1.1688 C.2     1  UNL1        0.0092
     17 CL          3.2096   -2.6269   -2.6960 Cl      2  UNL2       -0.0699
     18 CL          5.3850   -2.2209   -0.3669 Cl      3  UNL3       -0.0645
     19 H          -1.0008    3.3705    0.9373 H       1  UNL1        0.0346
     20 HXT        -5.3442    0.7073   -1.3077 H       1  UNL1        0.4207
     21 H          -2.3242   -2.0711   -0.1744 H       1  UNL1        0.0807
     22 H          -1.4678   -1.8064   -1.6827 H       1  UNL1        0.0865
     23 H          -0.5673   -2.2441   -0.2385 H       1  UNL1        0.0530
     24 H           2.0256    0.5359    1.7667 H       1  UNL1        0.1355
     25 H           4.2380   -0.5559    1.5954 H       1  UNL1        0.1113
     26 H           0.9048   -1.2252   -1.9726 H       1  UNL1        0.0506
@<TRIPOS>UNITY_ATOM_ATTR
17 1
charge -1
18 1
charge -1
@<TRIPOS>BOND
     1     2    11    1
     2     2     1   ar
     3     2     3   ar
     4     3    10    1
     5     4     3   ar
     6     5     4   ar
     7     5     6   ar
     8     6    19    1
     9     6     1   ar
    10     7     4    1
    11     7     8    2
    12     9    20    1
    13     9     7    1
    14    10    23    1
    15    10    21    1
    16    11    12    2
    17    12    24    1
    18    13    12    1
    19    13    25    1
    20    14    13    2
    21    15    16    2
    22    15    14    1
    23    16    11    1
    24    22    10    1
    25    26    16    1
