@<TRIPOS>MOLECULE
DFT_K053_.xyz
 26 25 0 0 0
SMALL
GASTEIGER

@<TRIPOS>ATOM
      1 N           0.0502    1.6496    0.4836 N.ar    1  UNL1       -0.4694
      2 C          -0.0232    0.3788    0.0750 C.ar    1  UNL1        0.2528
      3 C          -1.2617   -0.1789   -0.2537 C.ar    1  UNL1       -0.1731
      4 CA         -2.3690    0.6440   -0.1477 C.ar    1  UNL1        0.2608
      5 N          -2.2941    1.9129    0.2511 N.ar    1  UNL1       -0.5045
      6 C          -1.0756    2.3646    0.5571 C.ar    1  UNL1        0.5838
      7 C          -0.9527    3.7888    1.0104 C.3     1  UNL1       -0.1935
      8 C          -3.7157    0.0676   -0.4954 C.2     1  UNL1        0.5562
      9 O          -3.8700   -1.0746   -0.8525 O.2     1  UNL1       -0.4937
     10 OXT        -4.7197    0.9465   -0.3688 O.3     1  UNL1       -0.5289
     11 C           1.2467   -0.3825    0.0047 C.2     1  UNL1       -0.0205
     12 C           2.4101    0.1461    0.5726 C.2     1  UNL1       -0.0328
     13 C           3.6014   -0.5536    0.5205 C.2     1  UNL1       -0.0898
     14 C           3.6651   -1.7948   -0.1049 C.2     1  UNL1        0.0042
     15 C           2.5133   -2.3303   -0.6816 C.2     1  UNL1        0.0390
     16 C           1.3185   -1.6269   -0.6225 C.2     1  UNL1       -0.0782
     17 CL          2.5358   -3.8731   -1.4876 Cl      2  UNL2       -0.0635
     18 CL          5.1821   -2.6401   -0.1506 Cl      3  UNL3       -0.0550
     19 H          -1.3909   -1.2016   -0.5667 H       1  UNL1        0.1042
     20 H          -0.3981    3.8403    1.9472 H       1  UNL1        0.0614
     21 H          -0.3918    4.3670    0.2739 H       1  UNL1        0.0629
     22 H          -1.9364    4.2317    1.1373 H       1  UNL1        0.0556
     23 HXT        -5.5298    0.4760   -0.6151 H       1  UNL1        0.4213
     24 H           2.3647    1.1113    1.0528 H       1  UNL1        0.0723
     25 H           4.4977   -0.1459    0.9647 H       1  UNL1        0.1231
     26 H           0.4518   -2.0680   -1.0898 H       1  UNL1        0.1057
@<TRIPOS>UNITY_ATOM_ATTR
17 1
charge -1
18 1
charge -1
@<TRIPOS>BOND
     1     1     2   ar
     2     2    11    1
     3     2     3   ar
     4     3    19    1
     5     4     3   ar
     6     4     8    1
     7     5     4   ar
     8     6     1   ar
     9     6     5   ar
    10     7     6    1
    11     7    21    1
    12     8     9    2
    13    10     8    1
    14    10    23    1
    15    11    16    2
    16    12    13    2
    17    12    11    1
    18    13    14    1
    19    14    15    2
    20    16    15    1
    21    16    26    1
    22    20     7    1
    23    22     7    1
    24    24    12    1
    25    25    13    1
