@<TRIPOS>MOLECULE
DFT_K008_.xyz
 23 22 0 0 0
SMALL
GASTEIGER

@<TRIPOS>ATOM
      1 N           0.0563    1.6540    0.4852 N.ar    1  UNL1       -0.4874
      2 C          -0.0192    0.3813    0.0767 C.ar    1  UNL1        0.3012
      3 C          -1.2616   -0.1725   -0.2515 C.ar    1  UNL1       -0.2143
      4 CA         -2.3759    0.6461   -0.1484 C.ar    1  UNL1        0.4184
      5 N          -2.2960    1.9157    0.2520 N.ar    1  UNL1       -0.5624
      6 C          -1.0770    2.3465    0.5516 C.ar    1  UNL1        0.5004
      7 C          -3.7596    0.1481   -0.4820 C.2     1  UNL1        0.4673
      8 O          -4.7607    0.8029   -0.4230 O.2     1  UNL1       -0.4405
      9 OXT        -3.7430   -1.1525   -0.8661 O.3     1  UNL1       -0.5341
     10 C           1.2488   -0.3813    0.0044 C.2     1  UNL1       -0.0430
     11 C           2.4096    0.1420    0.5826 C.2     1  UNL1       -0.0330
     12 C           3.6005   -0.5582    0.5306 C.2     1  UNL1       -0.0652
     13 C           3.6669   -1.7943   -0.1053 C.2     1  UNL1        0.0041
     14 C           2.5175   -2.3237   -0.6929 C.2     1  UNL1        0.0296
     15 C           1.3232   -1.6198   -0.6342 C.2     1  UNL1       -0.0795
     16 CL          2.5433   -3.8589   -1.5130 Cl      2  UNL2       -0.0624
     17 CL          5.1827   -2.6403   -0.1505 Cl      3  UNL3       -0.0517
     18 H          -1.3724   -1.1973   -0.5630 H       1  UNL1        0.1008
     19 H          -0.9946    3.3748    0.8837 H       1  UNL1        0.0289
     20 HXT        -4.6592   -1.3959   -1.0614 H       1  UNL1        0.4191
     21 H           2.3630    1.1030    1.0711 H       1  UNL1        0.0786
     22 H           4.4946   -0.1549    0.9828 H       1  UNL1        0.1134
     23 H           0.4597   -2.0556   -1.1124 H       1  UNL1        0.1118
@<TRIPOS>UNITY_ATOM_ATTR
16 1
charge -1
17 1
charge -1
@<TRIPOS>BOND
     1     1     6   ar
     2     2     1   ar
     3     3     4   ar
     4     3     2   ar
     5     4     5   ar
     6     5     6   ar
     7     6    19    1
     8     7     8    2
     9     7     4    1
    10     9     7    1
    11    10     2    1
    12    10    11    2
    13    11    21    1
    14    12    11    1
    15    12    22    1
    16    13    12    2
    17    14    15    2
    18    14    13    1
    19    15    10    1
    20    18     3    1
    21    20     9    1
    22    23    15    1
