@<TRIPOS>MOLECULE
DFT_K009_.xyz
 26 26 0 0 0
SMALL
GASTEIGER

@<TRIPOS>ATOM
      1 N           0.0558    1.6539    0.4850 N.ar    1  UNL1       -0.4474
      2 C          -0.0176    0.3807    0.0758 C.ar    1  UNL1        0.2758
      3 C          -1.2620   -0.1724   -0.2503 C.ar    1  UNL1       -0.1630
      4 CA         -2.3754    0.6462   -0.1487 C.ar    1  UNL1        0.3676
      5 N          -2.2968    1.9167    0.2516 N.ar    1  UNL1       -0.5366
      6 C          -1.0773    2.3459    0.5523 C.ar    1  UNL1        0.4532
      7 C          -3.7577    0.1498   -0.4876 C.2     1  UNL1        0.4847
      8 O          -4.7556    0.8122   -0.4603 O.2     1  UNL1       -0.4476
      9 OXT        -3.7482   -1.1610   -0.8388 O.3     1  UNL1       -0.5291
     10 C           1.2467   -0.3852   -0.0029 C.2     1  UNL1       -0.0067
     11 C           1.3215   -1.6470   -0.5976 C.2     1  UNL1       -0.2222
     12 C           2.5259   -2.3295   -0.6520 C.2     1  UNL1       -0.1342
     13 C           3.7035   -1.8001   -0.1215 C.2     1  UNL1        0.0641
     14 C           3.6064   -0.5353    0.4676 C.2     1  UNL1        0.0048
     15 C           2.4159    0.1654    0.5289 C.2     1  UNL1        0.0076
     16 CL          5.0382    0.2084    1.1608 Cl      2  UNL2       -0.0910
     17 C           4.9958   -2.5588   -0.1905 C.3     1  UNL1       -0.0689
     18 H          -1.3719   -1.1967   -0.5624 H       1  UNL1        0.0730
     19 H          -0.9948    3.3733    0.8875 H       1  UNL1        0.0361
     20 HXT        -4.6648   -1.3981   -1.0402 H       1  UNL1        0.4122
     21 H           0.4467   -2.1036   -1.0368 H       1  UNL1        0.1651
     22 H           2.5620   -3.3033   -1.1223 H       1  UNL1        0.1251
     23 H           2.3796    1.1416    0.9859 H       1  UNL1        0.0508
     24 H           5.7551   -1.9955   -0.7356 H       1  UNL1        0.0430
     25 H           5.3993   -2.7421    0.8067 H       1  UNL1        0.0441
     26 H           4.8545   -3.5168   -0.6870 H       1  UNL1        0.0395
@<TRIPOS>UNITY_ATOM_ATTR
16 1
charge -1
@<TRIPOS>BOND
     1     1     6   ar
     2     2     1   ar
     3     3     4   ar
     4     3     2   ar
     5     4     5   ar
     6     5     6   ar
     7     6    19    1
     8     7     8    2
     9     7     4    1
    10     9     7    1
    11    10     2    1
    12    10    15    1
    13    11    10    2
    14    12    11    1
    15    12    13    2
    16    13    14    1
    17    14    15    2
    18    15    23    1
    19    17    13    1
    20    17    25    1
    21    18     3    1
    22    20     9    1
    23    21    11    1
    24    22    12    1
    25    24    17    1
    26    26    17    1
