@<TRIPOS>MOLECULE
DFT_K001_.xyz
 23 23 0 0 0
SMALL
GASTEIGER

@<TRIPOS>ATOM
      1 N           0.0556    1.6540    0.4872 N.ar    1  UNL1       -0.5225
      2 C          -0.0204    0.3817    0.0757 C.ar    1  UNL1        0.3764
      3 C          -1.2612   -0.1747   -0.2532 C.ar    1  UNL1       -0.2617
      4 CA         -2.3751    0.6460   -0.1461 C.ar    1  UNL1        0.4347
      5 N          -2.2956    1.9164    0.2511 N.ar    1  UNL1       -0.5679
      6 C          -1.0768    2.3475    0.5510 C.ar    1  UNL1        0.5041
      7 C          -3.7597    0.1475   -0.4757 C.2     1  UNL1        0.4697
      8 O          -4.7579    0.8086   -0.4324 O.2     1  UNL1       -0.4475
      9 OXT        -3.7481   -1.1591   -0.8343 O.3     1  UNL1       -0.5159
     10 C           1.2584   -0.3700    0.0404 C.2     1  UNL1       -0.0366
     11 C           2.3248    0.0572    0.8410 C.2     1  UNL1       -0.1044
     12 C           3.5338   -0.6166    0.8509 C.2     1  UNL1       -0.1520
     13 C           3.7206   -1.7357    0.0493 C.2     1  UNL1       -0.0925
     14 C           2.6854   -2.1716   -0.7636 C.2     1  UNL1       -0.0052
     15 C           1.4717   -1.4931   -0.7619 C.2     1  UNL1        0.1953
     16 F           0.5030   -1.9329   -1.5810 F       1  UNL1       -0.1388
     17 CL          2.8920   -3.5587   -1.7940 Cl      2  UNL2       -0.0665
     18 H          -1.3637   -1.1965   -0.5701 H       1  UNL1        0.1039
     19 H          -0.9938    3.3760    0.8824 H       1  UNL1        0.0294
     20 HXT        -4.6642   -1.4011   -1.0319 H       1  UNL1        0.4112
     21 H           2.1757    0.9344    1.4513 H       1  UNL1        0.1118
     22 H           4.3391   -0.2724    1.4842 H       1  UNL1        0.1458
     23 H           4.6582   -2.2718    0.0439 H       1  UNL1        0.1294
@<TRIPOS>UNITY_ATOM_ATTR
17 1
charge -1
@<TRIPOS>BOND
     1     1     6   ar
     2     2     1   ar
     3     3     4   ar
     4     3     2   ar
     5     4     5   ar
     6     5     6   ar
     7     6    19    1
     8     7     8    2
     9     7     4    1
    10     9     7    1
    11    10     2    1
    12    10    11    2
    13    11    21    1
    14    12    11    1
    15    12    22    1
    16    13    12    2
    17    14    15    2
    18    14    13    1
    19    15    10    1
    20    16    15    1
    21    18     3    1
    22    20     9    1
    23    23    13    1
