@<TRIPOS>MOLECULE
DFT_K006_.xyz
 31 32 0 0 0
SMALL
GASTEIGER

@<TRIPOS>ATOM
      1 N           0.0554    1.6545    0.4838 N.ar    1  UNL1       -0.4824
      2 C          -0.0164    0.3777    0.0809 C.ar    1  UNL1        0.3638
      3 C          -1.2617   -0.1705   -0.2549 C.ar    1  UNL1       -0.2384
      4 CA         -2.3751    0.6465   -0.1484 C.ar    1  UNL1        0.3777
      5 N          -2.2984    1.9164    0.2558 N.ar    1  UNL1       -0.5496
      6 C          -1.0773    2.3464    0.5484 C.ar    1  UNL1        0.4542
      7 C          -3.7568    0.1499   -0.4889 C.2     1  UNL1        0.5096
      8 OXT        -4.7595    0.8033   -0.4309 O.2     1  UNL1       -0.4588
      9 O          -3.7419   -1.1498   -0.8784 O.3     1  UNL1       -0.5314
     10 C           1.2472   -0.3837    0.0104 C.2     1  UNL1       -0.0610
     11 C           2.4628    0.2513    0.2743 C.2     1  UNL1       -0.0696
     12 C           3.6624   -0.4372    0.2106 C.2     1  UNL1       -0.1634
     13 C           3.6895   -1.7932   -0.1199 C.2     1  UNL1        0.2077
     14 C           2.4689   -2.4358   -0.3789 C.2     1  UNL1       -0.0010
     15 C           1.2757   -1.7449   -0.3157 C.2     1  UNL1       -0.1250
     16 CL          2.4585   -4.1336   -0.7852 Cl      2  UNL2       -0.0963
     17 O           4.8130   -2.5391   -0.2129 O.2     1  UNL1       -0.1942
     18 C           6.0611   -1.9166   -0.0105 C.3     1  UNL1        0.0467
     19 C           6.5975   -1.8075    1.3854 C.3     1  UNL1       -0.1139
     20 C           7.1559   -2.8273    0.4177 C.3     1  UNL1       -0.3335
     21 H          -1.3724   -1.1870   -0.5914 H       1  UNL1        0.0922
     22 H          -0.9937    3.3759    0.8773 H       1  UNL1        0.0377
     23 H          -4.6587   -1.3876   -1.0780 H       1  UNL1        0.4099
     24 H           2.4545    1.2991    0.5333 H       1  UNL1        0.0894
     25 H           4.5859    0.0768    0.4269 H       1  UNL1        0.1036
     26 H           0.3687   -2.2921   -0.5211 H       1  UNL1        0.1349
     27 H           6.2747   -1.1318   -0.7261 H       1  UNL1        0.1167
     28 H           7.1951   -0.9436    1.6408 H       1  UNL1        0.0779
     29 H           5.9662   -2.1779    2.1802 H       1  UNL1        0.1016
     30 H           6.8860   -3.8605    0.5796 H       1  UNL1        0.1512
     31 H           8.1403   -2.6702    0.0014 H       1  UNL1        0.1437
@<TRIPOS>UNITY_ATOM_ATTR
16 1
charge -1
@<TRIPOS>BOND
     1     1     2   ar
     2     2     3   ar
     3     2    10    1
     4     3    21    1
     5     4     7    1
     6     4     3   ar
     7     5     4   ar
     8     6     5   ar
     9     6     1   ar
    10     7     9    1
    11     8     7    2
    12     9    23    1
    13    10    15    2
    14    11    12    2
    15    11    10    1
    16    12    13    1
    17    13    17    1
    18    13    14    2
    19    15    26    1
    20    15    14    1
    21    18    17    1
    22    18    19    1
    23    18    20    1
    24    19    20    1
    25    19    29    1
    26    20    30    1
    27    22     6    1
    28    24    11    1
    29    25    12    1
    30    27    18    1
    31    28    19    1
    32    31    20    1
