@<TRIPOS>MOLECULE
DFT_K011_.xyz
 23 23 0 0 0
SMALL
GASTEIGER

@<TRIPOS>ATOM
      1 N           0.0555    1.6537    0.4850 N.ar    1  UNL1       -0.4454
      2 C          -0.0182    0.3810    0.0755 C.ar    1  UNL1        0.2821
      3 C          -1.2617   -0.1728   -0.2501 C.ar    1  UNL1       -0.1644
      4 CA         -2.3753    0.6465   -0.1488 C.ar    1  UNL1        0.3679
      5 N          -2.2964    1.9164    0.2515 N.ar    1  UNL1       -0.5321
      6 C          -1.0772    2.3463    0.5526 C.ar    1  UNL1        0.4520
      7 C          -3.7579    0.1503   -0.4886 C.2     1  UNL1        0.4825
      8 O          -4.7545    0.8141   -0.4640 O.2     1  UNL1       -0.4448
      9 OXT        -3.7480   -1.1614   -0.8361 O.3     1  UNL1       -0.5299
     10 C           1.2484   -0.3830   -0.0020 C.2     1  UNL1       -0.0119
     11 C           1.3200   -1.6476   -0.5947 C.2     1  UNL1       -0.2437
     12 C           2.5207   -2.3363   -0.6535 C.2     1  UNL1       -0.1116
     13 C           3.6608   -1.7656   -0.1164 C.2     1  UNL1        0.2174
     14 C           3.6159   -0.5078    0.4770 C.2     1  UNL1       -0.0102
     15 C           2.4145    0.1771    0.5291 C.2     1  UNL1       -0.0008
     16 CL          5.0647    0.1864    1.1425 Cl      2  UNL2       -0.0578
     17 F           4.8166   -2.4350   -0.1740 F       1  UNL1       -0.1522
     18 H          -1.3736   -1.1972   -0.5616 H       1  UNL1        0.0741
     19 H          -0.9949    3.3733    0.8886 H       1  UNL1        0.0368
     20 HXT        -4.6641   -1.4000   -1.0387 H       1  UNL1        0.4145
     21 H           0.4439   -2.1039   -1.0302 H       1  UNL1        0.1789
     22 H           2.5919   -3.3114   -1.1136 H       1  UNL1        0.1377
     23 H           2.3711    1.1553    0.9817 H       1  UNL1        0.0608
@<TRIPOS>UNITY_ATOM_ATTR
16 1
charge -1
@<TRIPOS>BOND
     1     1     6   ar
     2     2     1   ar
     3     3     4   ar
     4     3     2   ar
     5     4     5   ar
     6     5     6   ar
     7     6    19    1
     8     7     8    2
     9     7     4    1
    10     9     7    1
    11    10     2    1
    12    10    15    1
    13    11    10    2
    14    12    11    1
    15    12    13    2
    16    13    14    1
    17    14    15    2
    18    15    23    1
    19    17    13    1
    20    18     3    1
    21    20     9    1
    22    21    11    1
    23    22    12    1
