@<TRIPOS>MOLECULE
DFT_K045_.xyz
 23 22 0 0 0
SMALL
GASTEIGER

@<TRIPOS>ATOM
      1 N           0.0489    1.6482    0.4862 N.ar    1  UNL1       -0.5092
      2 C          -0.0028    0.3754    0.0686 C.ar    1  UNL1        0.3113
      3 C          -1.2595   -0.1568   -0.2419 C.ar    1  UNL1        0.0424
      4 CA         -2.3865    0.6455   -0.1464 C.ar    1  UNL1        0.3392
      5 N          -2.2960    1.9153    0.2436 N.ar    1  UNL1       -0.5384
      6 C          -1.0775    2.3435    0.5555 C.ar    1  UNL1        0.4715
      7 C          -3.7664    0.1565   -0.5150 C.2     1  UNL1        0.5135
      8 O          -4.5001    0.7424   -1.2589 O.2     1  UNL1       -0.4511
      9 OXT        -4.0708   -1.0007    0.1012 O.3     1  UNL1       -0.5128
     10 F          -1.3944   -1.4307   -0.6415 F       1  UNL1       -0.1441
     11 C           1.2764   -0.3648   -0.0053 C.2     1  UNL1       -0.0300
     12 C           2.3686    0.1126    0.7291 C.2     1  UNL1       -0.0864
     13 C           3.5872   -0.5364    0.6839 C.2     1  UNL1       -0.0643
     14 C           3.7536   -1.6713   -0.1046 C.2     1  UNL1        0.0180
     15 C           2.6771   -2.1495   -0.8504 C.2     1  UNL1        0.0212
     16 C           1.4491   -1.5038   -0.7950 C.2     1  UNL1       -0.0423
     17 CL          2.8324   -3.5546   -1.8658 Cl      2  UNL2       -0.0605
     18 CL          5.3022   -2.4558   -0.1358 Cl      3  UNL3       -0.0556
     19 H          -0.9959    3.3684    0.8957 H       1  UNL1        0.0440
     20 HXT        -4.9623   -1.2527   -0.1852 H       1  UNL1        0.4163
     21 H           2.2487    1.0002    1.3304 H       1  UNL1        0.1052
     22 H           4.4253   -0.1709    1.2584 H       1  UNL1        0.1151
     23 H           0.6429   -1.8988   -1.3892 H       1  UNL1        0.0971
@<TRIPOS>UNITY_ATOM_ATTR
17 1
charge -1
18 1
charge -1
@<TRIPOS>BOND
     1     1     2   ar
     2     2    11    1
     3     2     3   ar
     4     3    10    1
     5     4     3   ar
     6     4     7    1
     7     5     4   ar
     8     6     1   ar
     9     6     5   ar
    10     7     8    2
    11     9    20    1
    12     9     7    1
    13    11    16    2
    14    12    13    2
    15    12    11    1
    16    13    14    1
    17    14    15    2
    18    16    15    1
    19    16    23    1
    20    19     6    1
    21    21    12    1
    22    22    13    1
