@<TRIPOS>MOLECULE
DFT_K083_.xyz
 27 26 0 0 0
SMALL
GASTEIGER

@<TRIPOS>ATOM
      1 N           0.0479    1.6527    0.4871 N.ar    1  UNL1       -0.5228
      2 C          -0.0102    0.3835    0.0583 C.ar    1  UNL1        0.3200
      3 C          -1.2630   -0.1840   -0.2366 C.ar    1  UNL1        0.0426
      4 CA         -2.3746    0.6513   -0.1483 C.ar    1  UNL1        0.3823
      5 N          -2.2951    1.9215    0.2385 N.ar    1  UNL1       -0.5283
      6 C          -1.0783    2.3460    0.5665 C.ar    1  UNL1        0.4199
      7 C          -3.7450    0.1694   -0.5583 C.2     1  UNL1        0.4170
      8 OXT        -4.3468    0.5906   -1.5044 O.2     1  UNL1       -0.4254
      9 O          -4.2234   -0.7740    0.2805 O.3     1  UNL1       -0.4635
     10 O          -1.4286   -1.4687   -0.6745 O.3     1  UNL1       -0.2759
     11 C          -1.4235   -2.4828    0.3459 C.3     1  UNL1       -0.0318
     12 C           1.2867   -0.3238   -0.0675 C.2     1  UNL1       -0.0101
     13 C           2.3554    0.0698    0.7449 C.2     1  UNL1       -0.1095
     14 C           3.5881   -0.5463    0.6364 C.2     1  UNL1       -0.0754
     15 C           3.7911   -1.5581   -0.2972 C.2     1  UNL1        0.0339
     16 C           2.7382   -1.9464   -1.1250 C.2     1  UNL1        0.0211
     17 C           1.4965   -1.3367   -1.0052 C.2     1  UNL1       -0.0201
     18 CL          2.9416   -3.1927   -2.3246 Cl      2  UNL2       -0.0697
     19 CL          5.3564   -2.3051   -0.4038 Cl      3  UNL3       -0.0673
     20 H          -0.9988    3.3667    0.9201 H       1  UNL1        0.0577
     21 H          -5.1021   -1.0235   -0.0460 H       1  UNL1        0.4026
     22 H          -0.4848   -2.4747    0.9015 H       1  UNL1        0.0483
     23 H          -2.2633   -2.3368    1.0248 H       1  UNL1        0.0496
     24 H          -1.5293   -3.4309   -0.1740 H       1  UNL1        0.1023
     25 H           2.2091    0.8690    1.4552 H       1  UNL1        0.1136
     26 H           4.4093   -0.2481    1.2714 H       1  UNL1        0.1144
     27 H           0.7003   -1.6513   -1.6599 H       1  UNL1        0.0746
@<TRIPOS>UNITY_ATOM_ATTR
18 1
charge -1
19 1
charge -1
@<TRIPOS>BOND
     1     1     6   ar
     2     2     1   ar
     3     3     4   ar
     4     3     2   ar
     5     4     5   ar
     6     5     6   ar
     7     6    20    1
     8     7     4    1
     9     7     9    1
    10     8     7    2
    11    10     3    1
    12    10    11    1
    13    11    22    1
    14    11    23    1
    15    12     2    1
    16    12    13    2
    17    13    25    1
    18    14    13    1
    19    14    26    1
    20    15    14    2
    21    16    17    2
    22    16    15    1
    23    17    12    1
    24    21     9    1
    25    24    11    1
    26    27    17    1
