@<TRIPOS>MOLECULE
DFT_K104_.xyz
 35 36 0 0 0
SMALL
GASTEIGER

@<TRIPOS>ATOM
      1 N           0.0909    7.4701    2.3946 N.pl3   1  UNL1       -0.0542
      2 C          -0.0935    6.1968    1.9161 C.2     1  UNL1        0.0448
      3 C          -1.4026    5.6949    1.7203 C.2     1  UNL1       -0.1229
      4 C          -1.6526    4.4191    1.2661 C.2     1  UNL1       -0.0594
      5 C          -0.6100    3.5351    0.9719 C.2     1  UNL1       -0.0378
      6 C          -0.8943    2.1672    0.5127 C.ar    1  UNL1        0.3019
      7 N          -2.1730    1.8552    0.2481 N.ar    1  UNL1       -0.4979
      8 C          -2.4335    0.6193   -0.1642 C.ar    1  UNL1        0.5002
      9 N          -1.5650   -0.3659   -0.3556 N.ar    1  UNL1       -0.5617
     10 CA         -0.2916   -0.0622   -0.0882 C.ar    1  UNL1        0.3638
     11 C           0.0997    1.1895    0.3536 C.ar    1  UNL1       -0.1992
     12 C           0.7034   -1.1743   -0.2949 C.2     1  UNL1        0.4915
     13 O           0.4402   -2.2751   -0.6896 O.2     1  UNL1       -0.4536
     14 OXT         1.9656   -0.7869    0.0209 O.3     1  UNL1       -0.5212
     15 C           0.6921    4.0210    1.1154 C.2     1  UNL1       -0.1053
     16 C           0.9470    5.3074    1.5491 C.2     1  UNL1       -0.0159
     17 CL          2.6367    5.8080    1.5062 Cl      2  UNL2       -0.1155
     18 C           1.2324    7.9138    3.2241 C.3     1  UNL1       -0.0081
     19 C           0.6680    9.0771    4.0446 C.3     1  UNL1       -0.0248
     20 C          -0.4225    9.6467    3.1350 C.3     1  UNL1       -0.0282
     21 C          -1.0462    8.3840    2.5501 C.3     1  UNL1       -0.0243
     22 H          -2.2435    6.3284    1.9521 H       1  UNL1        0.0986
     23 H          -2.6707    4.0810    1.1447 H       1  UNL1        0.0754
     24 H          -3.4733    0.3916   -0.3709 H       1  UNL1        0.0213
     25 H           1.1361    1.3840    0.5717 H       1  UNL1        0.0799
     26 HXT         2.5349   -1.5528   -0.1408 H       1  UNL1        0.4056
     27 H           1.5427    3.4126    0.8485 H       1  UNL1        0.1282
     28 H           2.0608    8.2482    2.6002 H       1  UNL1        0.0506
     29 H           1.5960    7.1003    3.8499 H       1  UNL1        0.0562
     30 H           0.2250    8.7086    4.9717 H       1  UNL1        0.0302
     31 H           1.4375    9.8012    4.3069 H       1  UNL1        0.0251
     32 H          -1.1514   10.2596    3.6623 H       1  UNL1        0.0273
     33 H           0.0198   10.2525    2.3421 H       1  UNL1        0.0336
     34 H          -1.7937    7.9797    3.2444 H       1  UNL1        0.0517
     35 H          -1.5393    8.5508    1.5915 H       1  UNL1        0.0440
@<TRIPOS>UNITY_ATOM_ATTR
17 1
charge -1
@<TRIPOS>BOND
     1     1     2    1
     2     1    18    1
     3     2    16    2
     4     3     4    2
     5     3     2    1
     6     4     5    1
     7     5     6    1
     8     5    15    2
     9     6    11   ar
    10     7     8   ar
    11     7     6   ar
    12     8     9   ar
    13     9    10   ar
    14    10    12    1
    15    11    10   ar
    16    11    25    1
    17    12    13    2
    18    12    14    1
    19    14    26    1
    20    15    27    1
    21    16    15    1
    22    18    28    1
    23    18    29    1
    24    19    30    1
    25    19    31    1
    26    19    18    1
    27    20    21    1
    28    20    19    1
    29    21     1    1
    30    22     3    1
    31    23     4    1
    32    24     8    1
    33    32    20    1
    34    33    20    1
    35    34    21    1
    36    35    21    1
