@<TRIPOS>MOLECULE
DFT_K041_.xyz
 26 26 0 0 0
SMALL
GASTEIGER

@<TRIPOS>ATOM
      1 N           0.0566    1.6538    0.4862 N.ar    1  UNL1       -0.4774
      2 C          -0.0214    0.3827    0.0761 C.ar    1  UNL1        0.3474
      3 C          -1.2613   -0.1732   -0.2517 C.ar    1  UNL1       -0.2487
      4 CA         -2.3762    0.6455   -0.1479 C.ar    1  UNL1        0.4194
      5 N          -2.2950    1.9149    0.2513 N.ar    1  UNL1       -0.5507
      6 C          -1.0762    2.3473    0.5516 C.ar    1  UNL1        0.4799
      7 C          -3.7606    0.1460   -0.4776 C.2     1  UNL1        0.4819
      8 O          -4.7630    0.7974   -0.4066 O.2     1  UNL1       -0.4459
      9 OXT        -3.7417   -1.1513   -0.8720 O.3     1  UNL1       -0.5344
     10 C           1.2445   -0.3876    0.0032 C.2     1  UNL1       -0.0112
     11 C           1.3372   -1.5988   -0.6835 C.2     1  UNL1       -0.2300
     12 C           2.5363   -2.2903   -0.7261 C.2     1  UNL1       -0.0431
     13 C           3.6726   -1.8030   -0.0869 C.2     1  UNL1        0.0536
     14 C           3.5784   -0.5862    0.5968 C.2     1  UNL1       -0.0234
     15 C           2.3834    0.1119    0.6372 C.2     1  UNL1        0.0193
     16 CL          4.9485    0.1072    1.4257 Cl      2  UNL2       -0.0408
     17 C           4.9595   -2.5936   -0.1550 C.3     1  UNL1        0.2861
     18 F           4.8032   -3.7273   -0.8681 F       1  UNL1       -0.1242
     19 F           5.9489   -1.8971   -0.7435 F       1  UNL1       -0.1251
     20 F           5.3924   -2.9587    1.0657 F       1  UNL1       -0.1245
     21 H          -1.3692   -1.1992   -0.5602 H       1  UNL1        0.1030
     22 H          -0.9943    3.3752    0.8843 H       1  UNL1        0.0355
     23 HXT        -4.6587   -1.3967   -1.0623 H       1  UNL1        0.4183
     24 H           0.4848   -2.0056   -1.2067 H       1  UNL1        0.1633
     25 H           2.5984   -3.2225   -1.2656 H       1  UNL1        0.1136
     26 H           2.3267    1.0526    1.1612 H       1  UNL1        0.0579
@<TRIPOS>UNITY_ATOM_ATTR
16 1
charge -1
@<TRIPOS>BOND
     1     1     6   ar
     2     2     1   ar
     3     3     4   ar
     4     3     2   ar
     5     4     5   ar
     6     5     6   ar
     7     6    22    1
     8     7     8    2
     9     7     4    1
    10     9     7    1
    11    10     2    1
    12    10    15    1
    13    11    10    2
    14    12    11    1
    15    12    13    2
    16    13    14    1
    17    14    15    2
    18    15    26    1
    19    17    13    1
    20    17    20    1
    21    18    17    1
    22    19    17    1
    23    21     3    1
    24    23     9    1
    25    24    11    1
    26    25    12    1
