@<TRIPOS>MOLECULE
DFT_K081_.xyz
 23 23 0 0 0
SMALL
GASTEIGER

@<TRIPOS>ATOM
      1 N           0.0556    1.6540    0.4871 N.ar    1  UNL1       -0.5215
      2 C          -0.0204    0.3817    0.0757 C.ar    1  UNL1        0.3745
      3 C          -1.2612   -0.1747   -0.2532 C.ar    1  UNL1       -0.2621
      4 CA         -2.3751    0.6460   -0.1461 C.ar    1  UNL1        0.4457
      5 N          -2.2956    1.9163    0.2510 N.ar    1  UNL1       -0.5671
      6 C          -1.0767    2.3475    0.5510 C.ar    1  UNL1        0.4914
      7 C          -3.7596    0.1473   -0.4758 C.2     1  UNL1        0.4592
      8 O          -4.7579    0.8085   -0.4326 O.2     1  UNL1       -0.4445
      9 OXT        -3.7480   -1.1593   -0.8342 O.3     1  UNL1       -0.5158
     10 C           1.2585   -0.3700    0.0404 C.2     1  UNL1       -0.0350
     11 C           2.3249    0.0573    0.8410 C.2     1  UNL1       -0.1040
     12 C           3.5338   -0.6165    0.8509 C.2     1  UNL1       -0.1552
     13 C           3.7206   -1.7356    0.0492 C.2     1  UNL1       -0.0933
     14 C           2.6855   -2.1716   -0.7635 C.2     1  UNL1       -0.0096
     15 C           1.4717   -1.4931   -0.7618 C.2     1  UNL1        0.2011
     16 F           0.5029   -1.9330   -1.5807 F       1  UNL1       -0.1398
     17 CL          2.8921   -3.5586   -1.7938 Cl      2  UNL2       -0.0663
     18 H          -1.3637   -1.1966   -0.5700 H       1  UNL1        0.1046
     19 H          -0.9937    3.3760    0.8821 H       1  UNL1        0.0356
     20 HXT        -4.6641   -1.4013   -1.0318 H       1  UNL1        0.4120
     21 H           2.1756    0.9346    1.4513 H       1  UNL1        0.1117
     22 H           4.3392   -0.2722    1.4841 H       1  UNL1        0.1469
     23 H           4.6583   -2.2717    0.0439 H       1  UNL1        0.1314
@<TRIPOS>UNITY_ATOM_ATTR
17 1
charge -1
@<TRIPOS>BOND
     1     1     6   ar
     2     2     1   ar
     3     3     4   ar
     4     3     2   ar
     5     4     5   ar
     6     5     6   ar
     7     6    19    1
     8     7     8    2
     9     7     4    1
    10     9     7    1
    11    10     2    1
    12    10    11    2
    13    11    12    1
    14    11    21    1
    15    12    22    1
    16    13    23    1
    17    13    12    2
    18    14    13    1
    19    15    14    2
    20    15    10    1
    21    16    15    1
    22    18     3    1
    23    20     9    1
