@<TRIPOS>MOLECULE
DFT_K105_.xyz
 40 41 0 0 0
SMALL
GASTEIGER

@<TRIPOS>ATOM
      1 N           0.0553    1.6542    0.4840 N.ar    1  UNL1       -0.4284
      2 C          -0.0159    0.3776    0.0810 C.ar    1  UNL1        0.3090
      3 C          -1.2619   -0.1703   -0.2552 C.ar    1  UNL1       -0.1591
      4 CA         -2.3749    0.6462   -0.1482 C.ar    1  UNL1        0.3253
      5 N          -2.2985    1.9167    0.2559 N.ar    1  UNL1       -0.5143
      6 C          -1.0774    2.3465    0.5480 C.ar    1  UNL1        0.4030
      7 C          -3.7567    0.1481   -0.4841 C.2     1  UNL1        0.5049
      8 OXT        -4.7627    0.7948   -0.4092 O.2     1  UNL1       -0.4542
      9 O          -3.7405   -1.1471   -0.8913 O.3     1  UNL1       -0.5195
     10 C           1.2443   -0.3875    0.0125 C.2     1  UNL1       -0.0186
     11 C           1.2898   -1.7328   -0.3557 C.2     1  UNL1       -0.2943
     12 C           2.4879   -2.4272   -0.4072 C.2     1  UNL1       -0.0881
     13 C           3.6965   -1.7981   -0.0952 C.2     1  UNL1        0.2040
     14 C           3.6475   -0.4414    0.2779 C.2     1  UNL1       -0.0025
     15 C           2.4538    0.2442    0.3302 C.2     1  UNL1        0.0002
     16 CL          5.1312    0.3872    0.6791 Cl      2  UNL2       -0.0916
     17 O           4.9093   -2.3772   -0.1317 O.2     1  UNL1       -0.2724
     18 C           5.0729   -3.7657   -0.4859 C.3     1  UNL1        0.0668
     19 C           6.5052   -3.9148   -0.9846 C.3     1  UNL1       -0.0264
     20 C           6.8200   -5.3750   -1.3274 C.3     1  UNL1        0.0003
     21 C           6.5402   -6.3068   -0.1447 C.3     1  UNL1       -0.0003
     22 C           5.1079   -6.1382    0.3698 C.3     1  UNL1       -0.0143
     23 C           4.8005   -4.6749    0.7110 C.3     1  UNL1        0.0055
     24 H          -1.3724   -1.1876   -0.5891 H       1  UNL1        0.0518
     25 H          -0.9932    3.3763    0.8761 H       1  UNL1        0.0467
     26 H          -4.6588   -1.3838   -1.0847 H       1  UNL1        0.4038
     27 H           0.3851   -2.2679   -0.6041 H       1  UNL1        0.1971
     28 H           2.4767   -3.4682   -0.6884 H       1  UNL1        0.0976
     29 H           2.4438    1.2833    0.6193 H       1  UNL1        0.0464
     30 H           4.3886   -4.0047   -1.3057 H       1  UNL1        0.0705
     31 H           6.6556   -3.2696   -1.8512 H       1  UNL1        0.0298
     32 H           7.1795   -3.5588   -0.2015 H       1  UNL1        0.0338
     33 H           7.8614   -5.4603   -1.6418 H       1  UNL1        0.0084
     34 H           6.2136   -5.6868   -2.1843 H       1  UNL1        0.0008
     35 H           7.2419   -6.0830    0.6650 H       1  UNL1        0.0133
     36 H           6.7175   -7.3450   -0.4322 H       1  UNL1        0.0040
     37 H           4.9422   -6.7618    1.2500 H       1  UNL1        0.0057
     38 H           4.4054   -6.4903   -0.3930 H       1  UNL1        0.0104
     39 H           5.4367   -4.3428    1.5357 H       1  UNL1        0.0387
     40 H           3.7679   -4.5684    1.0463 H       1  UNL1        0.0065
@<TRIPOS>UNITY_ATOM_ATTR
16 1
charge -1
@<TRIPOS>BOND
     1     1     2   ar
     2     2     3   ar
     3     2    10    1
     4     3    24    1
     5     4     7    1
     6     4     3   ar
     7     5     4   ar
     8     6     5   ar
     9     6     1   ar
    10     7     9    1
    11     8     7    2
    12    10    11    2
    13    11    27    1
    14    11    12    1
    15    12    28    1
    16    13    12    2
    17    13    17    1
    18    14    13    1
    19    15    10    1
    20    15    14    2
    21    17    18    1
    22    18    23    1
    23    19    18    1
    24    19    32    1
    25    19    20    1
    26    20    21    1
    27    21    36    1
    28    21    22    1
    29    21    35    1
    30    22    37    1
    31    23    40    1
    32    23    39    1
    33    23    22    1
    34    25     6    1
    35    26     9    1
    36    29    15    1
    37    30    18    1
    38    31    19    1
    39    33    20    1
    40    34    20    1
    41    38    22    1
