@<TRIPOS>MOLECULE
DFT_K054_.xyz
 34 35 0 0 0
SMALL
GASTEIGER

@<TRIPOS>ATOM
      1 N           0.0552    1.6539    0.4846 N.ar    1  UNL1       -0.4368
      2 C          -0.0158    0.3784    0.0786 C.ar    1  UNL1        0.2927
      3 C          -1.2620   -0.1710   -0.2531 C.ar    1  UNL1       -0.1973
      4 CA         -2.3750    0.6464   -0.1483 C.ar    1  UNL1        0.4092
      5 N          -2.2982    1.9171    0.2543 N.ar    1  UNL1       -0.5420
      6 C          -1.0776    2.3462    0.5495 C.ar    1  UNL1        0.4118
      7 C          -3.7570    0.1482   -0.4837 C.2     1  UNL1        0.4602
      8 O          -4.7614    0.7985   -0.4203 O.2     1  UNL1       -0.4466
      9 OXT        -3.7423   -1.1512   -0.8768 O.3     1  UNL1       -0.5127
     10 C           1.2453   -0.3864    0.0087 C.2     1  UNL1       -0.0012
     11 C           1.3059   -1.6951   -0.4724 C.2     1  UNL1       -0.2592
     12 C           2.5052   -2.3879   -0.5264 C.2     1  UNL1       -0.1618
     13 C           3.6931   -1.7950   -0.0928 C.2     1  UNL1        0.2136
     14 C           3.6322   -0.4749    0.3876 C.2     1  UNL1       -0.0025
     15 C           2.4383    0.2113    0.4358 C.2     1  UNL1        0.0081
     16 CL          5.0958    0.3031    0.9350 Cl      2  UNL2       -0.0889
     17 O           4.8988   -2.3948   -0.1048 O.2     1  UNL1       -0.2637
     18 C           5.0147   -3.7575   -0.5008 C.3     1  UNL1        0.0894
     19 C           5.0423   -4.0984   -2.0095 C.3     1  UNL1       -0.0492
     20 C           6.2246   -5.0564   -1.7080 C.3     1  UNL1       -0.0536
     21 C           6.4427   -4.3026   -0.3693 C.3     1  UNL1       -0.0457
     22 H          -1.3737   -1.1920   -0.5759 H       1  UNL1        0.0578
     23 H          -0.9941    3.3744    0.8823 H       1  UNL1        0.0502
     24 HXT        -4.6607   -1.3880   -1.0708 H       1  UNL1        0.4073
     25 H           0.4159   -2.1954   -0.8248 H       1  UNL1        0.1926
     26 H           2.5177   -3.3928   -0.9179 H       1  UNL1        0.1222
     27 H           2.4150    1.2232    0.8084 H       1  UNL1        0.0443
     28 H           4.2896   -4.3611    0.0497 H       1  UNL1        0.0812
     29 H           4.1430   -4.5146   -2.4600 H       1  UNL1        0.0121
     30 H           5.3635   -3.2314   -2.5858 H       1  UNL1        0.0676
     31 H           7.0509   -5.0616   -2.4147 H       1  UNL1        0.0279
     32 H           5.8918   -6.0817   -1.5532 H       1  UNL1        0.0326
     33 H           7.1608   -3.4909   -0.4778 H       1  UNL1        0.0555
     34 H           6.6829   -4.8780    0.5223 H       1  UNL1        0.0248
@<TRIPOS>UNITY_ATOM_ATTR
16 1
charge -1
@<TRIPOS>BOND
     1     2    10    1
     2     2     1   ar
     3     3     2   ar
     4     4     3   ar
     5     4     5   ar
     6     5     6   ar
     7     6     1   ar
     8     6    23    1
     9     7     4    1
    10     8     7    2
    11     9     7    1
    12    10    15    2
    13    11    12    2
    14    11    10    1
    15    12    13    1
    16    13    17    1
    17    13    14    2
    18    15    14    1
    19    15    27    1
    20    18    17    1
    21    18    21    1
    22    19    20    1
    23    19    18    1
    24    20    21    1
    25    21    33    1
    26    21    34    1
    27    22     3    1
    28    24     9    1
    29    25    11    1
    30    26    12    1
    31    28    18    1
    32    29    19    1
    33    30    19    1
    34    31    20    1
    35    32    20    1
