@<TRIPOS>MOLECULE
DFT_K044_.xyz
 33 33 0 0 0
SMALL
GASTEIGER

@<TRIPOS>ATOM
      1 N           0.0552    1.6540    0.4843 N.ar    1  UNL1       -0.4765
      2 C          -0.0157    0.3783    0.0789 C.ar    1  UNL1        0.2941
      3 C          -1.2622   -0.1710   -0.2532 C.ar    1  UNL1       -0.1696
      4 CA         -2.3749    0.6463   -0.1484 C.ar    1  UNL1        0.3409
      5 N          -2.2982    1.9173    0.2543 N.ar    1  UNL1       -0.5522
      6 C          -1.0777    2.3461    0.5497 C.ar    1  UNL1        0.4985
      7 C          -3.7565    0.1486   -0.4851 C.2     1  UNL1        0.5093
      8 O          -4.7609    0.7989   -0.4198 O.2     1  UNL1       -0.4557
      9 OXT        -3.7418   -1.1497   -0.8816 O.3     1  UNL1       -0.5236
     10 C           1.2453   -0.3853    0.0062 C.2     1  UNL1        0.0036
     11 C           1.3016   -1.7064   -0.4393 C.2     1  UNL1       -0.3094
     12 C           2.5009   -2.3987   -0.4966 C.2     1  UNL1       -0.0656
     13 C           3.6993   -1.7912   -0.1114 C.2     1  UNL1        0.1774
     14 C           3.6395   -0.4592    0.3398 C.2     1  UNL1       -0.0168
     15 C           2.4450    0.2248    0.3955 C.2     1  UNL1        0.0132
     16 CL          5.1107    0.3414    0.8330 Cl      2  UNL2       -0.0903
     17 O           4.9135   -2.3684   -0.1480 O.2     1  UNL1       -0.2289
     18 C           5.0867   -3.7377   -0.5771 C.3     1  UNL1        0.1287
     19 C           6.5304   -3.8411   -1.0374 C.3     1  UNL1       -0.1770
     20 C           4.7607   -4.6946    0.5620 C.3     1  UNL1       -0.0922
     21 H          -1.3736   -1.1909   -0.5789 H       1  UNL1        0.0569
     22 H          -0.9937    3.3748    0.8808 H       1  UNL1        0.0224
     23 HXT        -4.6600   -1.3864   -1.0763 H       1  UNL1        0.4062
     24 H           0.4058   -2.2219   -0.7524 H       1  UNL1        0.1984
     25 H           2.4980   -3.4199   -0.8433 H       1  UNL1        0.0919
     26 H           2.4268    1.2460    0.7419 H       1  UNL1        0.0504
     27 H           4.4275   -3.9208   -1.4291 H       1  UNL1        0.0607
     28 H           7.2085   -3.6130   -0.2151 H       1  UNL1        0.0656
     29 H           6.7401   -4.8512   -1.3898 H       1  UNL1        0.0612
     30 H           6.7270   -3.1422   -1.8491 H       1  UNL1        0.0599
     31 H           3.7363   -4.5747    0.9117 H       1  UNL1        0.0302
     32 H           4.8881   -5.7264    0.2327 H       1  UNL1        0.0347
     33 H           5.4315   -4.5162    1.4028 H       1  UNL1        0.0537
@<TRIPOS>UNITY_ATOM_ATTR
16 1
charge -1
@<TRIPOS>BOND
     1     2     1   ar
     2     2    10    1
     3     3     2   ar
     4     4     5   ar
     5     4     3   ar
     6     5     6   ar
     7     6    22    1
     8     6     1   ar
     9     7     4    1
    10     8     7    2
    11     9     7    1
    12    10    15    1
    13    11    10    2
    14    11    12    1
    15    12    13    2
    16    13    14    1
    17    13    17    1
    18    15    26    1
    19    15    14    2
    20    18    17    1
    21    18    20    1
    22    19    18    1
    23    19    28    1
    24    20    31    1
    25    20    33    1
    26    21     3    1
    27    23     9    1
    28    24    11    1
    29    25    12    1
    30    27    18    1
    31    29    19    1
    32    30    19    1
    33    32    20    1
