@<TRIPOS>MOLECULE
DFT_K020_.xyz
 32 33 0 0 0
SMALL
GASTEIGER

@<TRIPOS>ATOM
      1 N           0.0553    1.6539    0.4844 N.ar    1  UNL1       -0.4434
      2 C          -0.0168    0.3789    0.0786 C.ar    1  UNL1        0.2916
      3 C          -1.2618   -0.1714   -0.2530 C.ar    1  UNL1       -0.1731
      4 CA         -2.3751    0.6464   -0.1483 C.ar    1  UNL1        0.3999
      5 N          -2.2976    1.9167    0.2539 N.ar    1  UNL1       -0.5341
      6 C          -1.0775    2.3465    0.5500 C.ar    1  UNL1        0.4228
      7 C          -3.7576    0.1478   -0.4825 C.2     1  UNL1        0.4470
      8 O          -4.7619    0.7972   -0.4128 O.2     1  UNL1       -0.4397
      9 OXT        -3.7415   -1.1494   -0.8812 O.3     1  UNL1       -0.5142
     10 C           1.2460   -0.3859    0.0100 C.2     1  UNL1       -0.0107
     11 C           1.3105   -1.6877   -0.4873 C.2     1  UNL1       -0.2691
     12 C           2.5111   -2.3797   -0.5366 C.2     1  UNL1       -0.1285
     13 C           3.6916   -1.7913   -0.0816 C.2     1  UNL1        0.1917
     14 C           3.6291   -0.4782    0.4138 C.2     1  UNL1        0.0080
     15 C           2.4342    0.2071    0.4564 C.2     1  UNL1        0.0127
     16 CL          5.0866    0.2910    0.9856 Cl      2  UNL2       -0.0851
     17 O           4.9005   -2.3945   -0.0916 O.2     1  UNL1       -0.2634
     18 C           4.9930   -3.7569   -0.4696 C.3     1  UNL1        0.0790
     19 C           5.0348   -4.0855   -1.9744 C.3     1  UNL1        0.0685
     20 O           6.3200   -4.7265   -1.8223 O.3     1  UNL1       -0.3551
     21 C           6.4355   -4.2664   -0.4546 C.3     1  UNL1        0.0877
     22 H          -1.3738   -1.1926   -0.5742 H       1  UNL1        0.0555
     23 H          -0.9938    3.3753    0.8804 H       1  UNL1        0.0456
     24 HXT        -4.6596   -1.3882   -1.0741 H       1  UNL1        0.4111
     25 H           0.4246   -2.1826   -0.8568 H       1  UNL1        0.1966
     26 H           2.5261   -3.3812   -0.9390 H       1  UNL1        0.0999
     27 H           2.4062    1.2146    0.8406 H       1  UNL1        0.0482
     28 H           4.2904   -4.3559    0.1102 H       1  UNL1        0.0851
     29 H           4.2787   -4.7738   -2.3563 H       1  UNL1        0.0535
     30 H           5.0870   -3.1974   -2.6096 H       1  UNL1        0.0845
     31 H           7.1665   -3.4624   -0.3479 H       1  UNL1        0.0721
     32 H           6.6665   -5.0793    0.2338 H       1  UNL1        0.0552
@<TRIPOS>UNITY_ATOM_ATTR
16 1
charge -1
@<TRIPOS>BOND
     1     2    10    1
     2     2     1   ar
     3     3     2   ar
     4     4     3   ar
     5     4     5   ar
     6     5     6   ar
     7     6     1   ar
     8     6    23    1
     9     7     4    1
    10     8     7    2
    11     9     7    1
    12    10    15    2
    13    11    12    2
    14    11    10    1
    15    12    13    1
    16    13    17    1
    17    13    14    2
    18    15    14    1
    19    15    27    1
    20    18    28    1
    21    18    21    1
    22    18    17    1
    23    19    20    1
    24    19    18    1
    25    20    21    1
    26    21    32    1
    27    21    31    1
    28    22     3    1
    29    24     9    1
    30    25    11    1
    31    26    12    1
    32    29    19    1
    33    30    19    1
