@<TRIPOS>MOLECULE
DFT_K063_.xyz
 26 27 0 0 0
SMALL
GASTEIGER

@<TRIPOS>ATOM
      1 N           0.0559    1.6539    0.4852 N.ar    1  UNL1       -0.4877
      2 C          -0.0165    0.3805    0.0750 C.ar    1  UNL1        0.3059
      3 C          -1.2621   -0.1719   -0.2495 C.ar    1  UNL1       -0.1727
      4 CA         -2.3759    0.6464   -0.1487 C.ar    1  UNL1        0.3667
      5 N          -2.2972    1.9172    0.2509 N.ar    1  UNL1       -0.5467
      6 C          -1.0776    2.3450    0.5527 C.ar    1  UNL1        0.4635
      7 C          -3.7585    0.1502   -0.4868 C.2     1  UNL1        0.4925
      8 O          -4.7569    0.8118   -0.4568 O.2     1  UNL1       -0.4508
      9 OXT        -3.7491   -1.1600   -0.8407 O.3     1  UNL1       -0.5321
     10 C           1.2466   -0.3885   -0.0062 C.ar    1  UNL1       -0.0396
     11 C           1.3222   -1.6075   -0.6874 C.ar    1  UNL1       -0.1551
     12 C           2.5238   -2.2968   -0.7477 C.ar    1  UNL1       -0.1650
     13 C           3.6577   -1.7863   -0.1284 C.ar    1  UNL1       -0.1137
     14 C           3.6095   -0.5724    0.5588 C.ar    1  UNL1        0.0229
     15 C           2.3998    0.1142    0.6039 C.ar    1  UNL1       -0.0196
     16 C           4.8293   -0.0265    1.2546 C.3     1  UNL1       -0.0772
     17 H          -1.3708   -1.1981   -0.5571 H       1  UNL1        0.0781
     18 H          -0.9954    3.3726    0.8875 H       1  UNL1        0.0387
     19 HXT        -4.6659   -1.3970   -1.0408 H       1  UNL1        0.4109
     20 H           0.4575   -2.0123   -1.1931 H       1  UNL1        0.1424
     21 H           2.5791   -3.2332   -1.2866 H       1  UNL1        0.1333
     22 H           4.5911   -2.3325   -0.1844 H       1  UNL1        0.1200
     23 H           2.3342    1.0631    1.1167 H       1  UNL1        0.0618
     24 H           4.8267    1.0631    1.2631 H       1  UNL1        0.0465
     25 H           4.8678   -0.3604    2.2946 H       1  UNL1        0.0444
     26 H           5.7466   -0.3617    0.7705 H       1  UNL1        0.0325
@<TRIPOS>BOND
     1     1     6   ar
     2     2     1   ar
     3     3     4   ar
     4     3     2   ar
     5     4     5   ar
     6     5     6   ar
     7     6    18    1
     8     7     8    2
     9     7     4    1
    10     9     7    1
    11    10     2    1
    12    10    15   ar
    13    11    10   ar
    14    12    11   ar
    15    12    13   ar
    16    13    14   ar
    17    14    15   ar
    18    14    16    1
    19    15    23    1
    20    16    24    1
    21    16    25    1
    22    17     3    1
    23    19     9    1
    24    20    11    1
    25    21    12    1
    26    22    13    1
    27    26    16    1
