@<TRIPOS>MOLECULE
DFT_K111_.xyz
 22 23 0 0 0
SMALL
GASTEIGER

@<TRIPOS>ATOM
      1 N           0.0577    1.6549    0.4854 N.ar    1  UNL1       -0.5321
      2 C          -0.0201    0.3827    0.0753 C.ar    1  UNL1        0.2962
      3 C          -1.2624   -0.1734   -0.2497 C.ar    1  UNL1       -0.2354
      4 CA         -2.3764    0.6456   -0.1494 C.ar    1  UNL1        0.4394
      5 N          -2.2955    1.9155    0.2507 N.ar    1  UNL1       -0.5877
      6 C          -1.0767    2.3458    0.5533 C.ar    1  UNL1        0.5426
      7 C          -3.7597    0.1481   -0.4835 C.2     1  UNL1        0.4745
      8 O          -4.7625    0.7999   -0.4184 O.2     1  UNL1       -0.4454
      9 OXT        -3.7427   -1.1505   -0.8762 O.3     1  UNL1       -0.5289
     10 C           1.2395   -0.3870   -0.0025 C.ar    1  UNL1       -0.0089
     11 C           1.3609   -1.5553   -0.7562 C.ar    1  UNL1       -0.1357
     12 C           2.5742   -2.2233   -0.7784 C.ar    1  UNL1       -0.1409
     13 C           3.6327   -1.7042   -0.0429 C.ar    1  UNL1        0.1658
     14 N           3.5407   -0.5904    0.6854 N.ar    1  UNL1       -0.4729
     15 C           2.3735    0.0465    0.6967 C.ar    1  UNL1        0.2711
     16 H          -1.3681   -1.2012   -0.5539 H       1  UNL1        0.0868
     17 H          -0.9953    3.3734    0.8883 H       1  UNL1        0.0232
     18 HXT        -4.6602   -1.3923   -1.0683 H       1  UNL1        0.4134
     19 H           0.5294   -1.9306   -1.3365 H       1  UNL1        0.1465
     20 H           2.7025   -3.1255   -1.3596 H       1  UNL1        0.1060
     21 H           4.5962   -2.2007   -0.0401 H       1  UNL1        0.0867
     22 H           2.3148    0.9497    1.2889 H       1  UNL1        0.0355
@<TRIPOS>BOND
     1     1     6   ar
     2     2     1   ar
     3     3     4   ar
     4     3     2   ar
     5     4     5   ar
     6     5     6   ar
     7     6    17    1
     8     7     8    2
     9     7     4    1
    10     9     7    1
    11    10     2    1
    12    10    15   ar
    13    11    10   ar
    14    12    11   ar
    15    12    13   ar
    16    13    14   ar
    17    14    15   ar
    18    15    22    1
    19    16     3    1
    20    18     9    1
    21    19    11    1
    22    20    12    1
    23    21    13    1
