@<TRIPOS>MOLECULE
DFT_K089_.xyz
 23 24 0 0 0
SMALL
GASTEIGER

@<TRIPOS>ATOM
      1 N           0.0546    1.6542    0.4863 N.ar    1  UNL1       -0.5277
      2 C          -0.0186    0.3801    0.0762 C.ar    1  UNL1        0.3886
      3 C          -1.2613   -0.1744   -0.2533 C.ar    1  UNL1       -0.2452
      4 CA         -2.3745    0.6467   -0.1461 C.ar    1  UNL1        0.4077
      5 N          -2.2966    1.9170    0.2515 N.ar    1  UNL1       -0.5651
      6 C          -1.0771    2.3473    0.5511 C.ar    1  UNL1        0.5065
      7 C          -3.7592    0.1468   -0.4738 C.2     1  UNL1        0.4853
      8 O          -4.7607    0.8017   -0.4115 O.2     1  UNL1       -0.4516
      9 OXT        -3.7456   -1.1541   -0.8542 O.3     1  UNL1       -0.5249
     10 C           1.2588   -0.3679    0.0365 C.ar    1  UNL1        0.0102
     11 C           2.3569    0.1112    0.7667 C.ar    1  UNL1       -0.1421
     12 C           3.5773   -0.5392    0.7818 C.ar    1  UNL1       -0.0983
     13 C           3.7147   -1.6991    0.0370 C.ar    1  UNL1        0.1122
     14 C           2.6754   -2.2156   -0.7131 C.ar    1  UNL1        0.0564
     15 C           1.4693   -1.5393   -0.6954 C.ar    1  UNL1        0.0440
     16 F           0.4809   -2.0554   -1.4537 F       1  UNL1       -0.1138
     17 F           4.8912   -2.3456    0.0364 F       1  UNL1       -0.1371
     18 H          -1.3655   -1.1957   -0.5703 H       1  UNL1        0.1017
     19 H          -0.9938    3.3759    0.8824 H       1  UNL1        0.0263
     20 HXT        -4.6633   -1.3952   -1.0463 H       1  UNL1        0.4117
     21 H           2.2222    1.0232    1.3277 H       1  UNL1        0.1182
     22 H           4.4121   -0.1641    1.3549 H       1  UNL1        0.1384
     23 H           2.7944   -3.1127   -1.3011 H       1  UNL1        0.1317
@<TRIPOS>BOND
     1     1     6   ar
     2     2     1   ar
     3     3     4   ar
     4     3     2   ar
     5     4     5   ar
     6     5     6   ar
     7     6    19    1
     8     7     8    2
     9     7     4    1
    10     9     7    1
    11    10     2    1
    12    10    11   ar
    13    11    21    1
    14    12    11   ar
    15    12    22    1
    16    13    12   ar
    17    14    15   ar
    18    14    13   ar
    19    15    10   ar
    20    16    15    1
    21    17    13    1
    22    18     3    1
    23    20     9    1
    24    23    14    1
