@<TRIPOS>MOLECULE
DFT_K054_.xyz
 34 36 0 0 0
SMALL
GASTEIGER

@<TRIPOS>ATOM
      1 N           0.0552    1.6539    0.4846 N.ar    1  UNL1       -0.4368
      2 C          -0.0158    0.3784    0.0787 C.ar    1  UNL1        0.2927
      3 C          -1.2620   -0.1710   -0.2532 C.ar    1  UNL1       -0.1973
      4 CA         -2.3750    0.6464   -0.1483 C.ar    1  UNL1        0.4092
      5 N          -2.2982    1.9171    0.2543 N.ar    1  UNL1       -0.5420
      6 C          -1.0776    2.3462    0.5495 C.ar    1  UNL1        0.4118
      7 C          -3.7570    0.1482   -0.4837 C.2     1  UNL1        0.4602
      8 O          -4.7614    0.7985   -0.4203 O.2     1  UNL1       -0.4466
      9 OXT        -3.7424   -1.1511   -0.8767 O.3     1  UNL1       -0.5127
     10 C           1.2453   -0.3865    0.0087 C.ar    1  UNL1        0.0012
     11 C           1.3058   -1.6951   -0.4724 C.ar    1  UNL1       -0.2592
     12 C           2.5050   -2.3879   -0.5264 C.ar    1  UNL1       -0.1618
     13 C           3.6930   -1.7952   -0.0928 C.ar    1  UNL1        0.2136
     14 C           3.6322   -0.4749    0.3876 C.ar    1  UNL1        0.0025
     15 C           2.4383    0.2112    0.4358 C.ar    1  UNL1       -0.0081
     16 CL          5.0958    0.3030    0.9350 Cl      1  UNL1       -0.0889
     17 O           4.8987   -2.3951   -0.1047 O.3     1  UNL1       -0.2637
     18 C           5.0145   -3.7577   -0.5008 C.3     1  UNL1        0.0894
     19 C           5.0420   -4.0986   -2.0095 C.3     1  UNL1       -0.0492
     20 C           6.2244   -5.0567   -1.7078 C.3     1  UNL1       -0.0536
     21 C           6.4425   -4.3028   -0.3692 C.3     1  UNL1       -0.0457
     22 H          -1.3737   -1.1919   -0.5759 H       1  UNL1        0.0578
     23 H          -0.9941    3.3744    0.8823 H       1  UNL1        0.0502
     24 HXT        -4.6608   -1.3879   -1.0708 H       1  UNL1        0.4073
     25 H           0.4156   -2.1953   -0.8249 H       1  UNL1        0.1926
     26 H           2.5175   -3.3930   -0.9180 H       1  UNL1        0.1222
     27 H           2.4149    1.2232    0.8085 H       1  UNL1        0.0443
     28 H           4.2894   -4.3613    0.0498 H       1  UNL1        0.0812
     29 H           4.1427   -4.5149   -2.4599 H       1  UNL1        0.0121
     30 H           5.3633   -3.2316   -2.5858 H       1  UNL1        0.0676
     31 H           7.0507   -5.0619   -2.4145 H       1  UNL1        0.0279
     32 H           5.8915   -6.0819   -1.5530 H       1  UNL1        0.0326
     33 H           7.1606   -3.4911   -0.4778 H       1  UNL1        0.0555
     34 H           6.6827   -4.8782    0.5224 H       1  UNL1        0.0248
@<TRIPOS>BOND
     1     2    10    1
     2     2     1   ar
     3     3     2   ar
     4     4     3   ar
     5     4     5   ar
     6     5     6   ar
     7     6     1   ar
     8     6    23    1
     9     7     4    1
    10     8     7    2
    11     9     7    1
    12    10    15   ar
    13    11    12   ar
    14    11    10   ar
    15    12    13   ar
    16    13    17    1
    17    13    14   ar
    18    14    16    1
    19    15    14   ar
    20    15    27    1
    21    18    17    1
    22    18    21    1
    23    19    20    1
    24    19    18    1
    25    20    21    1
    26    21    33    1
    27    21    34    1
    28    22     3    1
    29    24     9    1
    30    25    11    1
    31    26    12    1
    32    28    18    1
    33    29    19    1
    34    30    19    1
    35    31    20    1
    36    32    20    1
