@<TRIPOS>MOLECULE
DFT_K044_.xyz
 33 34 0 0 0
SMALL
GASTEIGER

@<TRIPOS>ATOM
      1 N           0.0552    1.6541    0.4843 N.ar    1  UNL1       -0.4765
      2 C          -0.0157    0.3783    0.0789 C.ar    1  UNL1        0.2941
      3 C          -1.2622   -0.1710   -0.2532 C.ar    1  UNL1       -0.1696
      4 CA         -2.3749    0.6463   -0.1484 C.ar    1  UNL1        0.3409
      5 N          -2.2982    1.9173    0.2543 N.ar    1  UNL1       -0.5522
      6 C          -1.0777    2.3461    0.5497 C.ar    1  UNL1        0.4985
      7 C          -3.7565    0.1487   -0.4852 C.2     1  UNL1        0.5093
      8 O          -4.7610    0.7989   -0.4198 O.2     1  UNL1       -0.4557
      9 OXT        -3.7418   -1.1497   -0.8816 O.3     1  UNL1       -0.5236
     10 C           1.2453   -0.3853    0.0062 C.ar    1  UNL1        0.0036
     11 C           1.3017   -1.7065   -0.4393 C.ar    1  UNL1       -0.3094
     12 C           2.5009   -2.3987   -0.4965 C.ar    1  UNL1       -0.0656
     13 C           3.6993   -1.7913   -0.1114 C.ar    1  UNL1        0.1774
     14 C           3.6395   -0.4593    0.3399 C.ar    1  UNL1        0.0168
     15 C           2.4450    0.2247    0.3955 C.ar    1  UNL1       -0.0132
     16 CL          5.1106    0.3413    0.8329 Cl      1  UNL1       -0.0903
     17 O           4.9135   -2.3685   -0.1481 O.3     1  UNL1       -0.2289
     18 C           5.0867   -3.7378   -0.5771 C.3     1  UNL1        0.1287
     19 C           6.5304   -3.8412   -1.0375 C.3     1  UNL1       -0.1770
     20 C           4.7607   -4.6947    0.5620 C.3     1  UNL1       -0.0922
     21 H          -1.3736   -1.1908   -0.5789 H       1  UNL1        0.0569
     22 H          -0.9936    3.3748    0.8808 H       1  UNL1        0.0224
     23 HXT        -4.6600   -1.3864   -1.0764 H       1  UNL1        0.4062
     24 H           0.4057   -2.2219   -0.7524 H       1  UNL1        0.1984
     25 H           2.4979   -3.4199   -0.8432 H       1  UNL1        0.0919
     26 H           2.4268    1.2459    0.7419 H       1  UNL1        0.0504
     27 H           4.4273   -3.9210   -1.4292 H       1  UNL1        0.0607
     28 H           7.2085   -3.6131   -0.2151 H       1  UNL1        0.0656
     29 H           6.7400   -4.8514   -1.3898 H       1  UNL1        0.0612
     30 H           6.7270   -3.1423   -1.8491 H       1  UNL1        0.0599
     31 H           3.7363   -4.5747    0.9118 H       1  UNL1        0.0302
     32 H           4.8880   -5.7266    0.2325 H       1  UNL1        0.0347
     33 H           5.4314   -4.5163    1.4028 H       1  UNL1        0.0537
@<TRIPOS>BOND
     1     2     1   ar
     2     2    10    1
     3     3     2   ar
     4     4     5   ar
     5     4     3   ar
     6     5     6   ar
     7     6    22    1
     8     6     1   ar
     9     7     4    1
    10     8     7    2
    11     9     7    1
    12    10    15   ar
    13    11    10   ar
    14    11    12   ar
    15    12    13   ar
    16    13    14   ar
    17    13    17    1
    18    14    16    1
    19    15    26    1
    20    15    14   ar
    21    18    17    1
    22    18    20    1
    23    19    18    1
    24    19    28    1
    25    20    31    1
    26    20    33    1
    27    21     3    1
    28    23     9    1
    29    24    11    1
    30    25    12    1
    31    27    18    1
    32    29    19    1
    33    30    19    1
    34    32    20    1
