@<TRIPOS>MOLECULE
DFT_K105_.xyz
 40 42 0 0 0
SMALL
GASTEIGER

@<TRIPOS>ATOM
      1 N           0.0553    1.6542    0.4840 N.ar    1  UNL1       -0.4284
      2 C          -0.0159    0.3776    0.0810 C.ar    1  UNL1        0.3090
      3 C          -1.2619   -0.1703   -0.2552 C.ar    1  UNL1       -0.1591
      4 CA         -2.3750    0.6463   -0.1482 C.ar    1  UNL1        0.3253
      5 N          -2.2985    1.9168    0.2559 N.ar    1  UNL1       -0.5143
      6 C          -1.0775    2.3465    0.5481 C.ar    1  UNL1        0.4030
      7 C          -3.7566    0.1480   -0.4839 C.2     1  UNL1        0.5049
      8 OXT        -4.7628    0.7948   -0.4091 O.2     1  UNL1       -0.4542
      9 O          -3.7404   -1.1471   -0.8911 O.3     1  UNL1       -0.5195
     10 C           1.2443   -0.3874    0.0125 C.ar    1  UNL1        0.0186
     11 C           1.2898   -1.7329   -0.3555 C.ar    1  UNL1       -0.2943
     12 C           2.4879   -2.4273   -0.4070 C.ar    1  UNL1       -0.0881
     13 C           3.6965   -1.7982   -0.0952 C.ar    1  UNL1        0.2040
     14 C           3.6475   -0.4415    0.2779 C.ar    1  UNL1        0.0025
     15 C           2.4538    0.2442    0.3302 C.ar    1  UNL1       -0.0002
     16 CL          5.1313    0.3872    0.6790 Cl      1  UNL1       -0.0916
     17 O           4.9094   -2.3773   -0.1317 O.3     1  UNL1       -0.2724
     18 C           5.0730   -3.7659   -0.4857 C.3     1  UNL1        0.0668
     19 C           6.5051   -3.9149   -0.9845 C.3     1  UNL1       -0.0264
     20 C           6.8199   -5.3751   -1.3272 C.3     1  UNL1       -0.0003
     21 C           6.5402   -6.3069   -0.1445 C.3     1  UNL1       -0.0003
     22 C           5.1079   -6.1383    0.3701 C.3     1  UNL1       -0.0143
     23 C           4.8005   -4.6750    0.7111 C.3     1  UNL1       -0.0055
     24 H          -1.3724   -1.1876   -0.5888 H       1  UNL1        0.0518
     25 H          -0.9931    3.3763    0.8759 H       1  UNL1        0.0467
     26 H          -4.6588   -1.3839   -1.0845 H       1  UNL1        0.4038
     27 H           0.3851   -2.2680   -0.6038 H       1  UNL1        0.1971
     28 H           2.4767   -3.4683   -0.6882 H       1  UNL1        0.0976
     29 H           2.4438    1.2833    0.6191 H       1  UNL1        0.0464
     30 H           4.3885   -4.0048   -1.3055 H       1  UNL1        0.0705
     31 H           6.6555   -3.2698   -1.8512 H       1  UNL1        0.0298
     32 H           7.1796   -3.5589   -0.2015 H       1  UNL1        0.0338
     33 H           7.8614   -5.4604   -1.6416 H       1  UNL1        0.0084
     34 H           6.2136   -5.6869   -2.1841 H       1  UNL1        0.0008
     35 H           7.2419   -6.0831    0.6652 H       1  UNL1        0.0133
     36 H           6.7175   -7.3451   -0.4319 H       1  UNL1        0.0040
     37 H           4.9422   -6.7619    1.2505 H       1  UNL1        0.0057
     38 H           4.4053   -6.4905   -0.3926 H       1  UNL1        0.0104
     39 H           5.4368   -4.3428    1.5359 H       1  UNL1        0.0387
     40 H           3.7680   -4.5684    1.0464 H       1  UNL1        0.0065
@<TRIPOS>BOND
     1     1     2   ar
     2     2     3   ar
     3     2    10    1
     4     3    24    1
     5     4     7    1
     6     4     3   ar
     7     5     4   ar
     8     6     5   ar
     9     6     1   ar
    10     7     9    1
    11     8     7    2
    12    10    11   ar
    13    11    27    1
    14    11    12   ar
    15    12    28    1
    16    13    12   ar
    17    13    17    1
    18    14    13   ar
    19    15    10   ar
    20    15    14   ar
    21    16    14    1
    22    17    18    1
    23    18    23    1
    24    19    18    1
    25    19    32    1
    26    19    20    1
    27    20    21    1
    28    21    36    1
    29    21    22    1
    30    21    35    1
    31    22    37    1
    32    23    40    1
    33    23    39    1
    34    23    22    1
    35    25     6    1
    36    26     9    1
    37    29    15    1
    38    30    18    1
    39    31    19    1
    40    33    20    1
    41    34    20    1
    42    38    22    1
