@<TRIPOS>MOLECULE
DFT_K002_.xyz
 23 24 0 0 0
SMALL
GASTEIGER

@<TRIPOS>ATOM
      1 N           0.0557    1.6539    0.4851 N.ar    1  UNL1       -0.4767
      2 C          -0.0184    0.3803    0.0775 C.ar    1  UNL1        0.3360
      3 C          -1.2614   -0.1719   -0.2523 C.ar    1  UNL1       -0.1972
      4 CA         -2.3756    0.6463   -0.1481 C.ar    1  UNL1        0.3707
      5 N          -2.2968    1.9160    0.2528 N.ar    1  UNL1       -0.5422
      6 C          -1.0769    2.3465    0.5507 C.ar    1  UNL1        0.4759
      7 C          -3.7591    0.1475   -0.4807 C.2     1  UNL1        0.4950
      8 O          -4.7617    0.7994   -0.4135 O.2     1  UNL1       -0.4488
      9 OXT        -3.7420   -1.1506   -0.8735 O.3     1  UNL1       -0.5334
     10 C           1.2481   -0.3839    0.0076 C.ar    1  UNL1        0.0708
     11 C           2.4220    0.1706    0.5278 C.ar    1  UNL1       -0.0567
     12 C           3.6205   -0.5247    0.4814 C.ar    1  UNL1       -0.1665
     13 C           3.6582   -1.7824   -0.0921 C.ar    1  UNL1        0.1739
     14 C           2.5005   -2.3423   -0.6179 C.ar    1  UNL1        0.2000
     15 C           1.3050   -1.6571   -0.5709 C.ar    1  UNL1       -0.2143
     16 F           2.5569   -3.5592   -1.1781 F       1  UNL1       -0.1527
     17 F           4.8038   -2.4713   -0.1499 F       1  UNL1       -0.1407
     18 H          -1.3735   -1.1949   -0.5684 H       1  UNL1        0.0864
     19 H          -0.9942    3.3750    0.8822 H       1  UNL1        0.0312
     20 HXT        -4.6591   -1.3932   -1.0668 H       1  UNL1        0.4146
     21 H           2.3798    1.1542    0.9683 H       1  UNL1        0.0908
     22 H           4.5317   -0.1064    0.8847 H       1  UNL1        0.1517
     23 H           0.4388   -2.1347   -1.0037 H       1  UNL1        0.1736
@<TRIPOS>BOND
     1     1     6   ar
     2     2     1   ar
     3     3     4   ar
     4     3     2   ar
     5     4     5   ar
     6     5     6   ar
     7     6    19    1
     8     7     8    2
     9     7     4    1
    10     9     7    1
    11    10     2    1
    12    10    11   ar
    13    11    21    1
    14    12    11   ar
    15    12    22    1
    16    13    12   ar
    17    14    15   ar
    18    14    13   ar
    19    15    10   ar
    20    16    14    1
    21    17    13    1
    22    18     3    1
    23    20     9    1
    24    23    15    1
