@<TRIPOS>MOLECULE
DFT_K020_.xyz
 32 34 0 0 0
SMALL
GASTEIGER

@<TRIPOS>ATOM
      1 N           0.0552    1.6539    0.4844 N.ar    1  UNL1       -0.4434
      2 C          -0.0167    0.3789    0.0786 C.ar    1  UNL1        0.2916
      3 C          -1.2618   -0.1714   -0.2530 C.ar    1  UNL1       -0.1731
      4 CA         -2.3751    0.6464   -0.1484 C.ar    1  UNL1        0.3999
      5 N          -2.2976    1.9167    0.2540 N.ar    1  UNL1       -0.5341
      6 C          -1.0774    2.3465    0.5500 C.ar    1  UNL1        0.4228
      7 C          -3.7575    0.1479   -0.4825 C.2     1  UNL1        0.4470
      8 O          -4.7620    0.7972   -0.4128 O.2     1  UNL1       -0.4397
      9 OXT        -3.7415   -1.1494   -0.8813 O.3     1  UNL1       -0.5142
     10 C           1.2460   -0.3859    0.0100 C.ar    1  UNL1        0.0107
     11 C           1.3104   -1.6877   -0.4874 C.ar    1  UNL1       -0.2691
     12 C           2.5110   -2.3798   -0.5367 C.ar    1  UNL1       -0.1285
     13 C           3.6915   -1.7914   -0.0816 C.ar    1  UNL1        0.1917
     14 C           3.6292   -0.4782    0.4138 C.ar    1  UNL1        0.0080
     15 C           2.4341    0.2071    0.4565 C.ar    1  UNL1       -0.0127
     16 CL          5.0866    0.2910    0.9856 Cl      1  UNL1       -0.0851
     17 O           4.9005   -2.3945   -0.0916 O.3     1  UNL1       -0.2634
     18 C           4.9929   -3.7569   -0.4697 C.3     1  UNL1        0.0790
     19 C           5.0347   -4.0854   -1.9745 C.3     1  UNL1        0.0685
     20 O           6.3200   -4.7265   -1.8224 O.3     1  UNL1       -0.3551
     21 C           6.4354   -4.2664   -0.4547 C.3     1  UNL1        0.0877
     22 H          -1.3737   -1.1926   -0.5742 H       1  UNL1        0.0555
     23 H          -0.9937    3.3753    0.8805 H       1  UNL1        0.0456
     24 HXT        -4.6596   -1.3882   -1.0741 H       1  UNL1        0.4111
     25 H           0.4245   -2.1826   -0.8568 H       1  UNL1        0.1966
     26 H           2.5261   -3.3813   -0.9390 H       1  UNL1        0.0999
     27 H           2.4062    1.2146    0.8406 H       1  UNL1        0.0482
     28 H           4.2904   -4.3559    0.1101 H       1  UNL1        0.0851
     29 H           4.2787   -4.7737   -2.3564 H       1  UNL1        0.0535
     30 H           5.0869   -3.1974   -2.6097 H       1  UNL1        0.0845
     31 H           7.1665   -3.4624   -0.3480 H       1  UNL1        0.0721
     32 H           6.6665   -5.0793    0.2337 H       1  UNL1        0.0552
@<TRIPOS>BOND
     1     2    10    1
     2     2     1   ar
     3     3     2   ar
     4     4     3   ar
     5     4     5   ar
     6     5     6   ar
     7     6     1   ar
     8     6    23    1
     9     7     4    1
    10     8     7    2
    11     9     7    1
    12    10    15   ar
    13    11    12   ar
    14    11    10   ar
    15    12    13   ar
    16    13    17    1
    17    13    14   ar
    18    14    16    1
    19    15    14   ar
    20    15    27    1
    21    18    28    1
    22    18    21    1
    23    18    17    1
    24    19    20    1
    25    19    18    1
    26    20    21    1
    27    21    32    1
    28    21    31    1
    29    22     3    1
    30    24     9    1
    31    25    11    1
    32    26    12    1
    33    29    19    1
    34    30    19    1
