@<TRIPOS>MOLECULE
DFT_K085_.xyz
 34 36 0 0 0
SMALL
GASTEIGER

@<TRIPOS>ATOM
      1 N           0.0557    1.6539    0.4849 N.ar    1  UNL1       -0.4854
      2 C          -0.0174    0.3804    0.0759 C.ar    1  UNL1        0.3338
      3 C          -1.2620   -0.1723   -0.2505 C.ar    1  UNL1       -0.2256
      4 CA         -2.3753    0.6463   -0.1487 C.ar    1  UNL1        0.3909
      5 N          -2.2970    1.9169    0.2517 N.ar    1  UNL1       -0.5595
      6 C          -1.0774    2.3458    0.5522 C.ar    1  UNL1        0.4887
      7 C          -3.7575    0.1487   -0.4855 C.2     1  UNL1        0.4960
      8 O          -4.7581    0.8061   -0.4421 O.2     1  UNL1       -0.4532
      9 OXT        -3.7448   -1.1572   -0.8540 O.3     1  UNL1       -0.5335
     10 C           1.2460   -0.3853   -0.0024 C.ar    1  UNL1        0.0143
     11 C           1.3201   -1.6449   -0.6043 C.ar    1  UNL1       -0.2550
     12 C           2.5219   -2.3294   -0.6638 C.ar    1  UNL1       -0.0527
     13 C           3.6869   -1.7885   -0.1236 C.ar    1  UNL1        0.1535
     14 C           3.6068   -0.5328    0.4931 C.ar    1  UNL1        0.0028
     15 C           2.4110    0.1597    0.5456 C.ar    1  UNL1       -0.0050
     16 CL          5.0252    0.1646    1.2404 Cl      1  UNL1       -0.0733
     17 O           4.8362   -2.5187   -0.1455 O.3     1  UNL1       -0.2905
     18 C           5.8331   -2.1433   -1.1057 C.3     1  UNL1        0.0703
     19 C           7.2007   -2.7957   -0.8797 C.3     1  UNL1       -0.0506
     20 C           7.3160   -2.9507   -2.4201 C.3     1  UNL1       -0.0632
     21 C           5.7752   -2.7841   -2.5106 C.3     1  UNL1       -0.0356
     22 H          -1.3726   -1.1969   -0.5619 H       1  UNL1        0.0905
     23 H          -0.9947    3.3734    0.8868 H       1  UNL1        0.0297
     24 HXT        -4.6619   -1.3961   -1.0514 H       1  UNL1        0.4133
     25 H           0.4454   -2.0972   -1.0478 H       1  UNL1        0.1659
     26 H           2.5825   -3.3039   -1.1273 H       1  UNL1        0.1100
     27 H           2.3669    1.1272    1.0206 H       1  UNL1        0.0537
     28 H           5.9011   -1.0566   -1.1577 H       1  UNL1        0.0815
     29 H           7.0758   -3.7614   -0.3906 H       1  UNL1        0.0590
     30 H           7.9559   -2.2188   -0.3500 H       1  UNL1        0.0293
     31 H           7.8455   -2.1160   -2.8772 H       1  UNL1        0.0392
     32 H           7.7380   -3.8796   -2.7964 H       1  UNL1        0.0238
     33 H           5.2706   -3.7489   -2.4672 H       1  UNL1        0.0542
     34 H           5.3618   -2.1950   -3.3274 H       1  UNL1        0.0066
@<TRIPOS>BOND
     1     2    10    1
     2     2     1   ar
     3     3     4   ar
     4     3     2   ar
     5     4     5   ar
     6     5     6   ar
     7     6     1   ar
     8     6    23    1
     9     7     4    1
    10     8     7    2
    11     9     7    1
    12    10    15   ar
    13    11    12   ar
    14    11    10   ar
    15    12    13   ar
    16    13    17    1
    17    13    14   ar
    18    14    16    1
    19    15    14   ar
    20    15    27    1
    21    18    17    1
    22    18    19    1
    23    18    28    1
    24    19    30    1
    25    20    31    1
    26    20    19    1
    27    21    20    1
    28    21    18    1
    29    22     3    1
    30    24     9    1
    31    25    11    1
    32    26    12    1
    33    29    19    1
    34    32    20    1
    35    33    21    1
    36    34    21    1
