 xtb: 6.7.1 (edcfbbe)
          12172414083D

 23 24  0     0  0            999 V2000
    1.1826    0.3493    0.4507 N   0  0  0  0  0  0  0  0  0  0  0  0
    1.0744   -0.9339    0.1022 C   0  0  0  0  0  0  0  0  0  0  0  0
   -0.1800   -1.4989   -0.1427 C   0  0  0  0  0  0  0  0  0  0  0  0
   -1.2758   -0.6488   -0.0322 C   0  0  0  0  0  0  0  0  0  0  0  0
   -1.1488    0.6327    0.2949 N   0  0  0  0  0  0  0  0  0  0  0  0
    0.0761    1.0595    0.5273 C   0  0  0  0  0  0  0  0  0  0  0  0
   -2.6699   -1.1329   -0.2900 C   0  0  0  0  0  0  0  0  0  0  0  0
   -3.6184   -0.4287   -0.4931 O   0  0  0  0  0  0  0  0  0  0  0  0
   -2.7436   -2.4712   -0.2751 O   0  0  0  0  0  0  0  0  0  0  0  0
    2.3375   -1.6840    0.0366 C   0  0  0  0  0  0  0  0  0  0  0  0
    3.4127   -1.2558    0.8168 C   0  0  0  0  0  0  0  0  0  0  0  0
    4.6186   -1.9271    0.7957 C   0  0  0  0  0  0  0  0  0  0  0  0
    4.7882   -3.0388   -0.0125 C   0  0  0  0  0  0  0  0  0  0  0  0
    3.7405   -3.4727   -0.8098 C   0  0  0  0  0  0  0  0  0  0  0  0
    2.5250   -2.7973   -0.7811 C   0  0  0  0  0  0  0  0  0  0  0  0
    1.5386   -3.2238   -1.5883 F   0  0  0  0  0  0  0  0  0  0  0  0
    3.9326   -4.8433   -1.8400 Cl  0  0  0  0  0  0  0  0  0  0  0  0
   -0.3151   -2.5357   -0.3964 H   0  0  0  0  0  0  0  0  0  0  0  0
    0.1849    2.0987    0.8090 H   0  0  0  0  0  0  0  0  0  0  0  0
   -3.6545   -2.7561   -0.4523 H   0  0  0  0  0  0  0  0  0  0  0  0
    3.2702   -0.3839    1.4349 H   0  0  0  0  0  0  0  0  0  0  0  0
    5.4368   -1.5849    1.4097 H   0  0  0  0  0  0  0  0  0  0  0  0
    5.7259   -3.5703   -0.0367 H   0  0  0  0  0  0  0  0  0  0  0  0
  1  2  4  0  0  0  0
  2  3  4  0  0  0  0
  3  4  4  0  0  0  0
  4  5  4  0  0  0  0
  1  6  4  0  0  0  0
  5  6  4  0  0  0  0
  4  7  1  0  0  0  0
  7  8  2  0  0  0  0
  7  9  1  0  0  0  0
  2 10  1  0  0  0  0
 10 11  4  0  0  0  0
 11 12  4  0  0  0  0
 12 13  4  0  0  0  0
 13 14  4  0  0  0  0
 10 15  4  0  0  0  0
 14 15  4  0  0  0  0
 15 16  1  0  0  0  0
 14 17  1  0  0  0  0
  3 18  1  0  0  0  0
  6 19  1  0  0  0  0
  9 20  1  0  0  0  0
 11 21  1  0  0  0  0
 12 22  1  0  0  0  0
 13 23  1  0  0  0  0
M  END
