 xtb: 6.7.1 (edcfbbe)
          12172414083D

 23 24  0     0  0            999 V2000
    1.1731    0.3566    0.5103 N   0  0  0  0  0  0  0  0  0  0  0  0
    1.0800   -0.9227    0.1435 C   0  0  0  0  0  0  0  0  0  0  0  0
   -0.1695   -1.4863   -0.1367 C   0  0  0  0  0  0  0  0  0  0  0  0
   -1.2722   -0.6461   -0.0337 C   0  0  0  0  0  0  0  0  0  0  0  0
   -1.1569    0.6319    0.3139 N   0  0  0  0  0  0  0  0  0  0  0  0
    0.0615    1.0608    0.5738 C   0  0  0  0  0  0  0  0  0  0  0  0
   -2.6597   -1.1328   -0.3177 C   0  0  0  0  0  0  0  0  0  0  0  0
   -3.6270   -0.4356   -0.4328 O   0  0  0  0  0  0  0  0  0  0  0  0
   -2.7076   -2.4691   -0.4343 O   0  0  0  0  0  0  0  0  0  0  0  0
    2.3354   -1.6776    0.0732 C   0  0  0  0  0  0  0  0  0  0  0  0
    3.4574   -1.1934    0.7474 C   0  0  0  0  0  0  0  0  0  0  0  0
    4.6573   -1.8735    0.7088 C   0  0  0  0  0  0  0  0  0  0  0  0
    4.7682   -3.0534   -0.0154 C   0  0  0  0  0  0  0  0  0  0  0  0
    3.6506   -3.5279   -0.6965 C   0  0  0  0  0  0  0  0  0  0  0  0
    2.4441   -2.8589   -0.6575 C   0  0  0  0  0  0  0  0  0  0  0  0
    3.7371   -4.6600   -1.4138 F   0  0  0  0  0  0  0  0  0  0  0  0
    6.2577   -3.9132   -0.0801 Cl  0  0  0  0  0  0  0  0  0  0  0  0
   -0.2937   -2.5216   -0.4025 H   0  0  0  0  0  0  0  0  0  0  0  0
    0.1597    2.0972    0.8695 H   0  0  0  0  0  0  0  0  0  0  0  0
   -3.6188   -2.7523   -0.6120 H   0  0  0  0  0  0  0  0  0  0  0  0
    3.3653   -0.2734    1.3016 H   0  0  0  0  0  0  0  0  0  0  0  0
    5.5190   -1.4971    1.2362 H   0  0  0  0  0  0  0  0  0  0  0  0
    1.6170   -3.2628   -1.2192 H   0  0  0  0  0  0  0  0  0  0  0  0
  1  2  4  0  0  0  0
  2  3  4  0  0  0  0
  3  4  4  0  0  0  0
  4  5  4  0  0  0  0
  1  6  4  0  0  0  0
  5  6  4  0  0  0  0
  4  7  1  0  0  0  0
  7  8  2  0  0  0  0
  7  9  1  0  0  0  0
  2 10  1  0  0  0  0
 10 11  4  0  0  0  0
 11 12  4  0  0  0  0
 12 13  4  0  0  0  0
 13 14  4  0  0  0  0
 10 15  4  0  0  0  0
 14 15  4  0  0  0  0
 14 16  1  0  0  0  0
 13 17  1  0  0  0  0
  3 18  1  0  0  0  0
  6 19  1  0  0  0  0
  9 20  1  0  0  0  0
 11 21  1  0  0  0  0
 12 22  1  0  0  0  0
 15 23  1  0  0  0  0
M  END
