 xtb: 6.7.1 (edcfbbe)
          12172414083D

 23 24  0     0  0            999 V2000
    1.1860    0.3597    0.4793 N   0  0  0  0  0  0  0  0  0  0  0  0
    1.0899   -0.9244    0.1342 C   0  0  0  0  0  0  0  0  0  0  0  0
   -0.1608   -1.4921   -0.1324 C   0  0  0  0  0  0  0  0  0  0  0  0
   -1.2623   -0.6499   -0.0398 C   0  0  0  0  0  0  0  0  0  0  0  0
   -1.1443    0.6347    0.2835 N   0  0  0  0  0  0  0  0  0  0  0  0
    0.0752    1.0663    0.5329 C   0  0  0  0  0  0  0  0  0  0  0  0
   -2.6516   -1.1405   -0.3042 C   0  0  0  0  0  0  0  0  0  0  0  0
   -3.6187   -0.4454   -0.4362 O   0  0  0  0  0  0  0  0  0  0  0  0
   -2.7031   -2.4801   -0.3868 O   0  0  0  0  0  0  0  0  0  0  0  0
    2.3412   -1.6886    0.0713 C   0  0  0  0  0  0  0  0  0  0  0  0
    2.4700   -2.8280   -0.7204 C   0  0  0  0  0  0  0  0  0  0  0  0
    3.6701   -3.5142   -0.7566 C   0  0  0  0  0  0  0  0  0  0  0  0
    4.7510   -3.0864   -0.0049 C   0  0  0  0  0  0  0  0  0  0  0  0
    4.6204   -1.9487    0.7783 C   0  0  0  0  0  0  0  0  0  0  0  0
    3.4315   -1.2449    0.8178 C   0  0  0  0  0  0  0  0  0  0  0  0
    5.9640   -1.4029    1.7173 Cl  0  0  0  0  0  0  0  0  0  0  0  0
   -0.2826   -2.5329   -0.3782 H   0  0  0  0  0  0  0  0  0  0  0  0
    0.1755    2.1084    0.8072 H   0  0  0  0  0  0  0  0  0  0  0  0
   -3.6164   -2.7640   -0.5521 H   0  0  0  0  0  0  0  0  0  0  0  0
    1.6445   -3.1661   -1.3275 H   0  0  0  0  0  0  0  0  0  0  0  0
    3.7685   -4.3919   -1.3773 H   0  0  0  0  0  0  0  0  0  0  0  0
    5.6865   -3.6226   -0.0281 H   0  0  0  0  0  0  0  0  0  0  0  0
    3.3293   -0.3560    1.4190 H   0  0  0  0  0  0  0  0  0  0  0  0
  1  2  4  0  0  0  0
  2  3  4  0  0  0  0
  3  4  4  0  0  0  0
  4  5  4  0  0  0  0
  1  6  4  0  0  0  0
  5  6  4  0  0  0  0
  4  7  1  0  0  0  0
  7  8  2  0  0  0  0
  7  9  1  0  0  0  0
  2 10  1  0  0  0  0
 10 11  4  0  0  0  0
 11 12  4  0  0  0  0
 12 13  4  0  0  0  0
 13 14  4  0  0  0  0
 10 15  4  0  0  0  0
 14 15  4  0  0  0  0
 14 16  1  0  0  0  0
  3 17  1  0  0  0  0
  6 18  1  0  0  0  0
  9 19  1  0  0  0  0
 11 20  1  0  0  0  0
 12 21  1  0  0  0  0
 13 22  1  0  0  0  0
 15 23  1  0  0  0  0
M  END
