 xtb: 6.7.1 (edcfbbe)
          12172414073D

 31 33  0     0  0            999 V2000
    1.1936    0.0917   -0.8962 N   0  0  0  0  0  0  0  0  0  0  0  0
    0.9137   -0.9732   -0.1395 C   0  0  0  0  0  0  0  0  0  0  0  0
   -0.4201   -1.3051    0.1321 C   0  0  0  0  0  0  0  0  0  0  0  0
   -1.3966   -0.4776   -0.4056 C   0  0  0  0  0  0  0  0  0  0  0  0
   -1.0959    0.5863   -1.1466 N   0  0  0  0  0  0  0  0  0  0  0  0
    0.1867    0.8065   -1.3531 C   0  0  0  0  0  0  0  0  0  0  0  0
   -2.8526   -0.7327   -0.1738 C   0  0  0  0  0  0  0  0  0  0  0  0
   -3.7365    0.0483   -0.3860 O   0  0  0  0  0  0  0  0  0  0  0  0
   -3.0741   -1.9622    0.3186 O   0  0  0  0  0  0  0  0  0  0  0  0
    2.0527   -1.7501    0.3482 C   0  0  0  0  0  0  0  0  0  0  0  0
    3.3136   -1.5262   -0.2040 C   0  0  0  0  0  0  0  0  0  0  0  0
    4.4141   -2.2456    0.2122 C   0  0  0  0  0  0  0  0  0  0  0  0
    4.2934   -3.2144    1.2060 C   0  0  0  0  0  0  0  0  0  0  0  0
    3.0268   -3.4240    1.7723 C   0  0  0  0  0  0  0  0  0  0  0  0
    1.9255   -2.7104    1.3538 C   0  0  0  0  0  0  0  0  0  0  0  0
    2.8672   -4.6048    3.0211 Cl  0  0  0  0  0  0  0  0  0  0  0  0
    5.3054   -3.9770    1.6754 O   0  0  0  0  0  0  0  0  0  0  0  0
    6.5745   -3.8259    1.1088 C   0  0  0  0  0  0  0  0  0  0  0  0
    7.4476   -2.6867    1.5478 C   0  0  0  0  0  0  0  0  0  0  0  0
    7.7338   -4.0830    2.0158 C   0  0  0  0  0  0  0  0  0  0  0  0
   -0.6975   -2.1656    0.7154 H   0  0  0  0  0  0  0  0  0  0  0  0
    0.4393    1.6646   -1.9629 H   0  0  0  0  0  0  0  0  0  0  0  0
   -4.0255   -2.0957    0.4544 H   0  0  0  0  0  0  0  0  0  0  0  0
    3.4114   -0.7755   -0.9711 H   0  0  0  0  0  0  0  0  0  0  0  0
    5.3781   -2.0521   -0.2300 H   0  0  0  0  0  0  0  0  0  0  0  0
    0.9782   -2.9006    1.8313 H   0  0  0  0  0  0  0  0  0  0  0  0
    6.6270   -4.1590    0.0756 H   0  0  0  0  0  0  0  0  0  0  0  0
    8.1043   -2.2351    0.8208 H   0  0  0  0  0  0  0  0  0  0  0  0
    7.0344   -1.9927    2.2632 H   0  0  0  0  0  0  0  0  0  0  0  0
    7.5045   -4.3254    3.0412 H   0  0  0  0  0  0  0  0  0  0  0  0
    8.5881   -4.6047    1.6154 H   0  0  0  0  0  0  0  0  0  0  0  0
  1  2  4  0  0  0  0
  2  3  4  0  0  0  0
  3  4  4  0  0  0  0
  4  5  4  0  0  0  0
  1  6  4  0  0  0  0
  5  6  4  0  0  0  0
  4  7  1  0  0  0  0
  7  8  2  0  0  0  0
  7  9  1  0  0  0  0
  2 10  1  0  0  0  0
 10 11  4  0  0  0  0
 11 12  4  0  0  0  0
 12 13  4  0  0  0  0
 13 14  4  0  0  0  0
 10 15  4  0  0  0  0
 14 15  4  0  0  0  0
 14 16  1  0  0  0  0
 13 17  1  0  0  0  0
 17 18  1  0  0  0  0
 18 19  1  0  0  0  0
 18 20  1  0  0  0  0
 19 20  1  0  0  0  0
  3 21  1  0  0  0  0
  6 22  1  0  0  0  0
  9 23  1  0  0  0  0
 11 24  1  0  0  0  0
 12 25  1  0  0  0  0
 15 26  1  0  0  0  0
 18 27  1  0  0  0  0
 19 28  1  0  0  0  0
 19 29  1  0  0  0  0
 20 30  1  0  0  0  0
 20 31  1  0  0  0  0
M  END
