 xtb: 6.7.1 (edcfbbe)
          12172414083D

 31 33  0     0  0            999 V2000
   -0.2152   -0.2866    0.4503 C   0  0  0  0  0  0  0  0  0  0  0  0
   -0.4507   -1.6359    0.1468 C   0  0  0  0  0  0  0  0  0  0  0  0
    0.5953   -2.4892   -0.1535 C   0  0  0  0  0  0  0  0  0  0  0  0
    1.8934   -2.0166   -0.1504 C   0  0  0  0  0  0  0  0  0  0  0  0
    2.1525   -0.6862    0.1694 C   0  0  0  0  0  0  0  0  0  0  0  0
    1.0940    0.1727    0.4641 C   0  0  0  0  0  0  0  0  0  0  0  0
    3.5389   -0.2133    0.1821 C   0  0  0  0  0  0  0  0  0  0  0  0
    3.9637    0.8770    0.9516 C   0  0  0  0  0  0  0  0  0  0  0  0
    5.3083    1.2150    0.8718 C   0  0  0  0  0  0  0  0  0  0  0  0
    6.1611    0.5447    0.1008 N   0  0  0  0  0  0  0  0  0  0  0  0
    5.6653   -0.4752   -0.5697 C   0  0  0  0  0  0  0  0  0  0  0  0
    4.4139   -0.8877   -0.5656 N   0  0  0  0  0  0  0  0  0  0  0  0
    5.8816    2.3542    1.6542 C   0  0  0  0  0  0  0  0  0  0  0  0
    7.0045    2.7623    1.5638 O   0  0  0  0  0  0  0  0  0  0  0  0
    4.9810    2.8928    2.4943 O   0  0  0  0  0  0  0  0  0  0  0  0
   -2.0731   -2.2103    0.1421 Cl  0  0  0  0  0  0  0  0  0  0  0  0
   -1.3060    0.4760    0.7125 O   0  0  0  0  0  0  0  0  0  0  0  0
   -1.1228    1.8335    0.9862 C   0  0  0  0  0  0  0  0  0  0  0  0
   -0.8489    2.7839   -0.1441 C   0  0  0  0  0  0  0  0  0  0  0  0
   -2.2007    2.7513    0.5060 C   0  0  0  0  0  0  0  0  0  0  0  0
    0.3846   -3.5196   -0.3912 H   0  0  0  0  0  0  0  0  0  0  0  0
    2.7196   -2.6660   -0.3887 H   0  0  0  0  0  0  0  0  0  0  0  0
    1.2853    1.2136    0.6699 H   0  0  0  0  0  0  0  0  0  0  0  0
    3.2973    1.4209    1.5987 H   0  0  0  0  0  0  0  0  0  0  0  0
    6.3568   -1.0307   -1.1898 H   0  0  0  0  0  0  0  0  0  0  0  0
    5.3902    3.6206    2.9895 H   0  0  0  0  0  0  0  0  0  0  0  0
   -0.6607    2.0228    1.9525 H   0  0  0  0  0  0  0  0  0  0  0  0
   -0.2019    3.6278    0.0408 H   0  0  0  0  0  0  0  0  0  0  0  0
   -0.7576    2.3645   -1.1345 H   0  0  0  0  0  0  0  0  0  0  0  0
   -3.0107    2.3008   -0.0454 H   0  0  0  0  0  0  0  0  0  0  0  0
   -2.4965    3.5699    1.1426 H   0  0  0  0  0  0  0  0  0  0  0  0
  1  2  4  0  0  0  0
  2  3  4  0  0  0  0
  3  4  4  0  0  0  0
  4  5  4  0  0  0  0
  1  6  4  0  0  0  0
  5  6  4  0  0  0  0
  5  7  1  0  0  0  0
  7  8  4  0  0  0  0
  8  9  4  0  0  0  0
  9 10  4  0  0  0  0
 10 11  4  0  0  0  0
  7 12  4  0  0  0  0
 11 12  4  0  0  0  0
  9 13  1  0  0  0  0
 13 14  2  0  0  0  0
 13 15  1  0  0  0  0
  2 16  1  0  0  0  0
  1 17  1  0  0  0  0
 17 18  1  0  0  0  0
 18 19  1  0  0  0  0
 18 20  1  0  0  0  0
 19 20  1  0  0  0  0
  3 21  1  0  0  0  0
  4 22  1  0  0  0  0
  6 23  1  0  0  0  0
  8 24  1  0  0  0  0
 11 25  1  0  0  0  0
 15 26  1  0  0  0  0
 18 27  1  0  0  0  0
 19 28  1  0  0  0  0
 19 29  1  0  0  0  0
 20 30  1  0  0  0  0
 20 31  1  0  0  0  0
M  END
