 xtb: 6.7.1 (edcfbbe)
          12172414083D

 23 24  0     0  0            999 V2000
    1.1766    0.3542    0.5200 N   0  0  0  0  0  0  0  0  0  0  0  0
    1.0882   -0.9237    0.1482 C   0  0  0  0  0  0  0  0  0  0  0  0
   -0.1583   -1.4891   -0.1418 C   0  0  0  0  0  0  0  0  0  0  0  0
   -1.2633   -0.6519   -0.0423 C   0  0  0  0  0  0  0  0  0  0  0  0
   -1.1528    0.6255    0.3096 N   0  0  0  0  0  0  0  0  0  0  0  0
    0.0629    1.0560    0.5785 C   0  0  0  0  0  0  0  0  0  0  0  0
   -2.6490   -1.1415   -0.3305 C   0  0  0  0  0  0  0  0  0  0  0  0
   -3.6169   -0.4460   -0.4529 O   0  0  0  0  0  0  0  0  0  0  0  0
   -2.6929   -2.4778   -0.4498 O   0  0  0  0  0  0  0  0  0  0  0  0
    2.3452   -1.6773    0.0850 C   0  0  0  0  0  0  0  0  0  0  0  0
    3.4522   -1.2101    0.7948 C   0  0  0  0  0  0  0  0  0  0  0  0
    4.6489   -1.8949    0.7605 C   0  0  0  0  0  0  0  0  0  0  0  0
    4.7666   -3.0551    0.0067 C   0  0  0  0  0  0  0  0  0  0  0  0
    3.6698   -3.5213   -0.7163 C   0  0  0  0  0  0  0  0  0  0  0  0
    2.4668   -2.8385   -0.6743 C   0  0  0  0  0  0  0  0  0  0  0  0
    3.8038   -4.9498   -1.6709 Cl  0  0  0  0  0  0  0  0  0  0  0  0
    6.2605   -3.9040   -0.0368 Cl  0  0  0  0  0  0  0  0  0  0  0  0
   -0.2775   -2.5242   -0.4105 H   0  0  0  0  0  0  0  0  0  0  0  0
    0.1571    2.0919    0.8774 H   0  0  0  0  0  0  0  0  0  0  0  0
   -3.6026   -2.7627   -0.6330 H   0  0  0  0  0  0  0  0  0  0  0  0
    3.3518   -0.3036    1.3697 H   0  0  0  0  0  0  0  0  0  0  0  0
    5.5031   -1.5376    1.3133 H   0  0  0  0  0  0  0  0  0  0  0  0
    1.6410   -3.2111   -1.2588 H   0  0  0  0  0  0  0  0  0  0  0  0
  1  2  4  0  0  0  0
  2  3  4  0  0  0  0
  3  4  4  0  0  0  0
  4  5  4  0  0  0  0
  1  6  4  0  0  0  0
  5  6  4  0  0  0  0
  4  7  1  0  0  0  0
  7  8  2  0  0  0  0
  7  9  1  0  0  0  0
  2 10  1  0  0  0  0
 10 11  4  0  0  0  0
 11 12  4  0  0  0  0
 12 13  4  0  0  0  0
 13 14  4  0  0  0  0
 10 15  4  0  0  0  0
 14 15  4  0  0  0  0
 14 16  1  0  0  0  0
 13 17  1  0  0  0  0
  3 18  1  0  0  0  0
  6 19  1  0  0  0  0
  9 20  1  0  0  0  0
 11 21  1  0  0  0  0
 12 22  1  0  0  0  0
 15 23  1  0  0  0  0
M  END
