 xtb: 6.7.1 (edcfbbe)
          12172414073D

 26 27  0     0  0            999 V2000
    1.2021    0.3147    0.5533 N   0  0  0  0  0  0  0  0  0  0  0  0
    1.0993   -0.9580    0.1656 C   0  0  0  0  0  0  0  0  0  0  0  0
   -0.1556   -1.4993   -0.1389 C   0  0  0  0  0  0  0  0  0  0  0  0
   -1.2475   -0.6465   -0.0407 C   0  0  0  0  0  0  0  0  0  0  0  0
   -1.1221    0.6243    0.3323 N   0  0  0  0  0  0  0  0  0  0  0  0
    0.0986    1.0307    0.6174 C   0  0  0  0  0  0  0  0  0  0  0  0
   -2.6342   -1.1090   -0.3603 C   0  0  0  0  0  0  0  0  0  0  0  0
   -3.5880   -0.3970   -0.5000 O   0  0  0  0  0  0  0  0  0  0  0  0
   -2.7022   -2.4448   -0.4855 O   0  0  0  0  0  0  0  0  0  0  0  0
    2.3415   -1.7315    0.0966 C   0  0  0  0  0  0  0  0  0  0  0  0
    2.4441   -2.9188   -0.6255 C   0  0  0  0  0  0  0  0  0  0  0  0
    3.6394   -3.6103   -0.6614 C   0  0  0  0  0  0  0  0  0  0  0  0
    4.7656   -3.1589    0.0161 C   0  0  0  0  0  0  0  0  0  0  0  0
    4.6483   -1.9660    0.7313 C   0  0  0  0  0  0  0  0  0  0  0  0
    3.4661   -1.2559    0.7716 C   0  0  0  0  0  0  0  0  0  0  0  0
    6.0172   -1.3538    1.5950 Cl  0  0  0  0  0  0  0  0  0  0  0  0
    6.0529   -3.9142   -0.0148 C   0  0  0  0  0  0  0  0  0  0  0  0
   -0.2899   -2.5286   -0.4227 H   0  0  0  0  0  0  0  0  0  0  0  0
    0.2057    2.0599    0.9348 H   0  0  0  0  0  0  0  0  0  0  0  0
   -3.6144   -2.7092   -0.6866 H   0  0  0  0  0  0  0  0  0  0  0  0
    1.6004   -3.2978   -1.1802 H   0  0  0  0  0  0  0  0  0  0  0  0
    3.7056   -4.5260   -1.2301 H   0  0  0  0  0  0  0  0  0  0  0  0
    3.3924   -0.3324    1.3225 H   0  0  0  0  0  0  0  0  0  0  0  0
    6.8574   -3.2740   -0.3737 H   0  0  0  0  0  0  0  0  0  0  0  0
    6.3197   -4.2396    0.9901 H   0  0  0  0  0  0  0  0  0  0  0  0
    5.9769   -4.7851   -0.6597 H   0  0  0  0  0  0  0  0  0  0  0  0
  1  2  4  0  0  0  0
  2  3  4  0  0  0  0
  3  4  4  0  0  0  0
  4  5  4  0  0  0  0
  1  6  4  0  0  0  0
  5  6  4  0  0  0  0
  4  7  1  0  0  0  0
  7  8  2  0  0  0  0
  7  9  1  0  0  0  0
  2 10  1  0  0  0  0
 10 11  4  0  0  0  0
 11 12  4  0  0  0  0
 12 13  4  0  0  0  0
 13 14  4  0  0  0  0
 10 15  4  0  0  0  0
 14 15  4  0  0  0  0
 14 16  1  0  0  0  0
 13 17  1  0  0  0  0
  3 18  1  0  0  0  0
  6 19  1  0  0  0  0
  9 20  1  0  0  0  0
 11 21  1  0  0  0  0
 12 22  1  0  0  0  0
 15 23  1  0  0  0  0
 17 24  1  0  0  0  0
 17 25  1  0  0  0  0
 17 26  1  0  0  0  0
M  END
