 xtb: 6.7.1 (edcfbbe)
          12172414083D

 26 27  0     0  0            999 V2000
    1.1647    0.3669    0.5143 N   0  0  0  0  0  0  0  0  0  0  0  0
    1.0769   -0.9131    0.1475 C   0  0  0  0  0  0  0  0  0  0  0  0
   -0.1730   -1.4775   -0.1347 C   0  0  0  0  0  0  0  0  0  0  0  0
   -1.2771   -0.6402   -0.0352 C   0  0  0  0  0  0  0  0  0  0  0  0
   -1.1663    0.6380    0.3161 N   0  0  0  0  0  0  0  0  0  0  0  0
    0.0514    1.0673    0.5792 C   0  0  0  0  0  0  0  0  0  0  0  0
   -2.6594   -1.1308   -0.3292 C   0  0  0  0  0  0  0  0  0  0  0  0
   -3.6260   -0.4378   -0.4750 O   0  0  0  0  0  0  0  0  0  0  0  0
   -2.7070   -2.4705   -0.4250 O   0  0  0  0  0  0  0  0  0  0  0  0
    2.3301   -1.6684    0.0785 C   0  0  0  0  0  0  0  0  0  0  0  0
    2.4434   -2.8674   -0.6231 C   0  0  0  0  0  0  0  0  0  0  0  0
    3.6458   -3.5474   -0.6607 C   0  0  0  0  0  0  0  0  0  0  0  0
    4.7730   -3.0701   -0.0036 C   0  0  0  0  0  0  0  0  0  0  0  0
    4.6373   -1.8653    0.6825 C   0  0  0  0  0  0  0  0  0  0  0  0
    3.4547   -1.1620    0.7305 C   0  0  0  0  0  0  0  0  0  0  0  0
    5.7138   -1.3649    1.3266 F   0  0  0  0  0  0  0  0  0  0  0  0
    6.0755   -3.8018   -0.0119 C   0  0  0  0  0  0  0  0  0  0  0  0
   -0.2946   -2.5128   -0.4018 H   0  0  0  0  0  0  0  0  0  0  0  0
    0.1468    2.1032    0.8787 H   0  0  0  0  0  0  0  0  0  0  0  0
   -3.6156   -2.7533   -0.6149 H   0  0  0  0  0  0  0  0  0  0  0  0
    1.5989   -3.2662   -1.1629 H   0  0  0  0  0  0  0  0  0  0  0  0
    3.7177   -4.4726   -1.2136 H   0  0  0  0  0  0  0  0  0  0  0  0
    3.3912   -0.2295    1.2671 H   0  0  0  0  0  0  0  0  0  0  0  0
    6.8992   -3.1100   -0.1773 H   0  0  0  0  0  0  0  0  0  0  0  0
    6.2388   -4.2790    0.9549 H   0  0  0  0  0  0  0  0  0  0  0  0
    6.0858   -4.5669   -0.7831 H   0  0  0  0  0  0  0  0  0  0  0  0
  1  2  4  0  0  0  0
  2  3  4  0  0  0  0
  3  4  4  0  0  0  0
  4  5  4  0  0  0  0
  1  6  4  0  0  0  0
  5  6  4  0  0  0  0
  4  7  1  0  0  0  0
  7  8  2  0  0  0  0
  7  9  1  0  0  0  0
  2 10  1  0  0  0  0
 10 11  4  0  0  0  0
 11 12  4  0  0  0  0
 12 13  4  0  0  0  0
 13 14  4  0  0  0  0
 10 15  4  0  0  0  0
 14 15  4  0  0  0  0
 14 16  1  0  0  0  0
 13 17  1  0  0  0  0
  3 18  1  0  0  0  0
  6 19  1  0  0  0  0
  9 20  1  0  0  0  0
 11 21  1  0  0  0  0
 12 22  1  0  0  0  0
 15 23  1  0  0  0  0
 17 24  1  0  0  0  0
 17 25  1  0  0  0  0
 17 26  1  0  0  0  0
M  END
