 xtb: 6.7.1 (edcfbbe)
          12172414083D

 23 24  0     0  0            999 V2000
    1.1884    0.3461    0.5004 N   0  0  0  0  0  0  0  0  0  0  0  0
    1.0895   -0.9343    0.1423 C   0  0  0  0  0  0  0  0  0  0  0  0
   -0.1614   -1.4954   -0.1351 C   0  0  0  0  0  0  0  0  0  0  0  0
   -1.2607   -0.6497   -0.0392 C   0  0  0  0  0  0  0  0  0  0  0  0
   -1.1397    0.6305    0.2974 N   0  0  0  0  0  0  0  0  0  0  0  0
    0.0799    1.0561    0.5566 C   0  0  0  0  0  0  0  0  0  0  0  0
   -2.6509   -1.1333   -0.3154 C   0  0  0  0  0  0  0  0  0  0  0  0
   -3.6148   -0.4331   -0.4412 O   0  0  0  0  0  0  0  0  0  0  0  0
   -2.7051   -2.4711   -0.4157 O   0  0  0  0  0  0  0  0  0  0  0  0
    2.3405   -1.6997    0.0770 C   0  0  0  0  0  0  0  0  0  0  0  0
    2.4634   -2.8503   -0.6998 C   0  0  0  0  0  0  0  0  0  0  0  0
    3.6616   -3.5371   -0.7401 C   0  0  0  0  0  0  0  0  0  0  0  0
    4.7379   -3.0819    0.0006 C   0  0  0  0  0  0  0  0  0  0  0  0
    4.6368   -1.9315    0.7790 C   0  0  0  0  0  0  0  0  0  0  0  0
    3.4377   -1.2434    0.8067 C   0  0  0  0  0  0  0  0  0  0  0  0
    5.9902   -1.3766    1.6906 Cl  0  0  0  0  0  0  0  0  0  0  0  0
    5.8919   -3.7625   -0.0434 F   0  0  0  0  0  0  0  0  0  0  0  0
   -0.2875   -2.5331   -0.3911 H   0  0  0  0  0  0  0  0  0  0  0  0
    0.1825    2.0948    0.8425 H   0  0  0  0  0  0  0  0  0  0  0  0
   -3.6183   -2.7515   -0.5878 H   0  0  0  0  0  0  0  0  0  0  0  0
    1.6355   -3.2021   -1.2944 H   0  0  0  0  0  0  0  0  0  0  0  0
    3.7796   -4.4252   -1.3406 H   0  0  0  0  0  0  0  0  0  0  0  0
    3.3375   -0.3447    1.3934 H   0  0  0  0  0  0  0  0  0  0  0  0
  1  2  4  0  0  0  0
  2  3  4  0  0  0  0
  3  4  4  0  0  0  0
  4  5  4  0  0  0  0
  1  6  4  0  0  0  0
  5  6  4  0  0  0  0
  4  7  1  0  0  0  0
  7  8  2  0  0  0  0
  7  9  1  0  0  0  0
  2 10  1  0  0  0  0
 10 11  4  0  0  0  0
 11 12  4  0  0  0  0
 12 13  4  0  0  0  0
 13 14  4  0  0  0  0
 10 15  4  0  0  0  0
 14 15  4  0  0  0  0
 14 16  1  0  0  0  0
 13 17  1  0  0  0  0
  3 18  1  0  0  0  0
  6 19  1  0  0  0  0
  9 20  1  0  0  0  0
 11 21  1  0  0  0  0
 12 22  1  0  0  0  0
 15 23  1  0  0  0  0
M  END
