 xtb: 6.7.1 (edcfbbe)
          12172414083D

 27 28  0     0  0            999 V2000
    1.1517    0.3434    0.5529 N   0  0  0  0  0  0  0  0  0  0  0  0
    1.0514   -0.9362    0.1842 C   0  0  0  0  0  0  0  0  0  0  0  0
   -0.1980   -1.4694   -0.1590 C   0  0  0  0  0  0  0  0  0  0  0  0
   -1.2861   -0.6087   -0.1021 C   0  0  0  0  0  0  0  0  0  0  0  0
   -1.1625    0.6673    0.2554 N   0  0  0  0  0  0  0  0  0  0  0  0
    0.0532    1.0696    0.5659 C   0  0  0  0  0  0  0  0  0  0  0  0
   -2.6691   -1.0683   -0.4404 C   0  0  0  0  0  0  0  0  0  0  0  0
   -3.6314   -0.3604   -0.5368 O   0  0  0  0  0  0  0  0  0  0  0  0
   -2.7258   -2.3969   -0.6341 O   0  0  0  0  0  0  0  0  0  0  0  0
    2.2828   -1.7239    0.1836 C   0  0  0  0  0  0  0  0  0  0  0  0
    2.3967   -2.9589   -0.4575 C   0  0  0  0  0  0  0  0  0  0  0  0
    3.5809   -3.6514   -0.4075 C   0  0  0  0  0  0  0  0  0  0  0  0
    4.7100   -3.1742    0.2778 C   0  0  0  0  0  0  0  0  0  0  0  0
    4.5910   -1.9282    0.9056 C   0  0  0  0  0  0  0  0  0  0  0  0
    3.4000   -1.2267    0.8484 C   0  0  0  0  0  0  0  0  0  0  0  0
    5.8758   -1.1507    1.7899 Cl  0  0  0  0  0  0  0  0  0  0  0  0
    5.7594   -4.0172    0.2163 O   0  0  0  0  0  0  0  0  0  0  0  0
    6.9960   -3.7628    0.8488 C   0  0  0  0  0  0  0  0  0  0  0  0
   -0.3312   -2.5001   -0.4377 H   0  0  0  0  0  0  0  0  0  0  0  0
    0.1602    2.1046    0.8647 H   0  0  0  0  0  0  0  0  0  0  0  0
   -3.6360   -2.6581   -0.8467 H   0  0  0  0  0  0  0  0  0  0  0  0
    1.5703   -3.3740   -1.0122 H   0  0  0  0  0  0  0  0  0  0  0  0
    3.6852   -4.6051   -0.9011 H   0  0  0  0  0  0  0  0  0  0  0  0
    3.3227   -0.2663    1.3333 H   0  0  0  0  0  0  0  0  0  0  0  0
    7.4829   -2.8731    0.4451 H   0  0  0  0  0  0  0  0  0  0  0  0
    6.8858   -3.6658    1.9304 H   0  0  0  0  0  0  0  0  0  0  0  0
    7.6064   -4.6380    0.6270 H   0  0  0  0  0  0  0  0  0  0  0  0
  1  2  4  0  0  0  0
  2  3  4  0  0  0  0
  3  4  4  0  0  0  0
  4  5  4  0  0  0  0
  1  6  4  0  0  0  0
  5  6  4  0  0  0  0
  4  7  1  0  0  0  0
  7  8  2  0  0  0  0
  7  9  1  0  0  0  0
  2 10  1  0  0  0  0
 10 11  4  0  0  0  0
 11 12  4  0  0  0  0
 12 13  4  0  0  0  0
 13 14  4  0  0  0  0
 10 15  4  0  0  0  0
 14 15  4  0  0  0  0
 14 16  1  0  0  0  0
 13 17  1  0  0  0  0
 17 18  1  0  0  0  0
  3 19  1  0  0  0  0
  6 20  1  0  0  0  0
  9 21  1  0  0  0  0
 11 22  1  0  0  0  0
 12 23  1  0  0  0  0
 15 24  1  0  0  0  0
 18 25  1  0  0  0  0
 18 26  1  0  0  0  0
 18 27  1  0  0  0  0
M  END
