 xtb: 6.7.1 (edcfbbe)
          12172414083D

 26 28  0     0  0            999 V2000
    1.1809    0.3304    0.5452 N   0  0  0  0  0  0  0  0  0  0  0  0
    1.0730   -0.9452    0.1685 C   0  0  0  0  0  0  0  0  0  0  0  0
   -0.1814   -1.4781   -0.1541 C   0  0  0  0  0  0  0  0  0  0  0  0
   -1.2687   -0.6185   -0.0728 C   0  0  0  0  0  0  0  0  0  0  0  0
   -1.1378    0.6566    0.2854 N   0  0  0  0  0  0  0  0  0  0  0  0
    0.0826    1.0570    0.5785 C   0  0  0  0  0  0  0  0  0  0  0  0
   -2.6577   -1.0788   -0.3830 C   0  0  0  0  0  0  0  0  0  0  0  0
   -3.6186   -0.3694   -0.4839 O   0  0  0  0  0  0  0  0  0  0  0  0
   -2.7222   -2.4113   -0.5449 O   0  0  0  0  0  0  0  0  0  0  0  0
    2.3052   -1.7379    0.1463 C   0  0  0  0  0  0  0  0  0  0  0  0
    3.3653   -1.3348    0.9478 C   0  0  0  0  0  0  0  0  0  0  0  0
    4.5247   -2.0987    0.9500 C   0  0  0  0  0  0  0  0  0  0  0  0
    4.6096   -3.2479    0.1340 C   0  0  0  0  0  0  0  0  0  0  0  0
    3.5638   -3.6442   -0.6873 C   0  0  0  0  0  0  0  0  0  0  0  0
    2.4172   -2.8810   -0.6649 C   0  0  0  0  0  0  0  0  0  0  0  0
    5.8120   -3.8404    0.2876 O   0  0  0  0  0  0  0  0  0  0  0  0
    6.4962   -3.0919    1.1864 C   0  0  0  0  0  0  0  0  0  0  0  0
    5.7834   -2.0300    1.6259 C   0  0  0  0  0  0  0  0  0  0  0  0
   -0.3167   -2.5098   -0.4290 H   0  0  0  0  0  0  0  0  0  0  0  0
    0.1945    2.0907    0.8799 H   0  0  0  0  0  0  0  0  0  0  0  0
   -3.6363   -2.6736   -0.7387 H   0  0  0  0  0  0  0  0  0  0  0  0
    3.2697   -0.4496    1.5554 H   0  0  0  0  0  0  0  0  0  0  0  0
    3.6525   -4.5152   -1.3164 H   0  0  0  0  0  0  0  0  0  0  0  0
    1.5967   -3.1569   -1.3087 H   0  0  0  0  0  0  0  0  0  0  0  0
    7.4860   -3.4286    1.4274 H   0  0  0  0  0  0  0  0  0  0  0  0
    6.0951   -1.2899    2.3332 H   0  0  0  0  0  0  0  0  0  0  0  0
  1  2  4  0  0  0  0
  2  3  4  0  0  0  0
  3  4  4  0  0  0  0
  4  5  4  0  0  0  0
  1  6  4  0  0  0  0
  5  6  4  0  0  0  0
  4  7  1  0  0  0  0
  7  8  2  0  0  0  0
  7  9  1  0  0  0  0
  2 10  1  0  0  0  0
 10 11  4  0  0  0  0
 11 12  4  0  0  0  0
 12 13  4  0  0  0  0
 13 14  4  0  0  0  0
 10 15  4  0  0  0  0
 14 15  4  0  0  0  0
 13 16  1  0  0  0  0
 16 17  1  0  0  0  0
 12 18  1  0  0  0  0
 17 18  2  0  0  0  0
  3 19  1  0  0  0  0
  6 20  1  0  0  0  0
  9 21  1  0  0  0  0
 11 22  1  0  0  0  0
 14 23  1  0  0  0  0
 15 24  1  0  0  0  0
 17 25  1  0  0  0  0
 18 26  1  0  0  0  0
M  END
