 xtb: 6.7.1 (edcfbbe)
          12172414083D

 32 34  0     0  0            999 V2000
    0.4421    0.4196    1.0412 N   0  0  0  0  0  0  0  0  0  0  0  0
    0.7347   -0.7658    0.5018 C   0  0  0  0  0  0  0  0  0  0  0  0
   -0.1793   -1.3888   -0.3571 C   0  0  0  0  0  0  0  0  0  0  0  0
   -1.3573   -0.7033   -0.6249 C   0  0  0  0  0  0  0  0  0  0  0  0
   -1.6218    0.4860   -0.0912 N   0  0  0  0  0  0  0  0  0  0  0  0
   -0.7078    0.9762    0.7218 C   0  0  0  0  0  0  0  0  0  0  0  0
   -2.3974   -1.2622   -1.5442 C   0  0  0  0  0  0  0  0  0  0  0  0
   -3.3158   -0.6475   -2.0071 O   0  0  0  0  0  0  0  0  0  0  0  0
   -2.1844   -2.5610   -1.8141 O   0  0  0  0  0  0  0  0  0  0  0  0
    2.0256   -1.3536    0.8639 C   0  0  0  0  0  0  0  0  0  0  0  0
    2.6079   -2.3897    0.1394 C   0  0  0  0  0  0  0  0  0  0  0  0
    3.8357   -2.9092    0.5054 C   0  0  0  0  0  0  0  0  0  0  0  0
    4.5147   -2.4164    1.6153 C   0  0  0  0  0  0  0  0  0  0  0  0
    3.9266   -1.3674    2.3404 C   0  0  0  0  0  0  0  0  0  0  0  0
    2.7103   -0.8417    1.9696 C   0  0  0  0  0  0  0  0  0  0  0  0
    4.7644   -0.7443    3.7108 Cl  0  0  0  0  0  0  0  0  0  0  0  0
    5.7140   -2.8617    2.0586 O   0  0  0  0  0  0  0  0  0  0  0  0
    6.3300   -3.9346    1.4005 C   0  0  0  0  0  0  0  0  0  0  0  0
    7.0167   -3.6385    0.0549 C   0  0  0  0  0  0  0  0  0  0  0  0
    8.2842   -4.0207    0.5874 O   0  0  0  0  0  0  0  0  0  0  0  0
    7.7551   -4.1866    1.9036 C   0  0  0  0  0  0  0  0  0  0  0  0
   -0.0027   -2.3586   -0.7886 H   0  0  0  0  0  0  0  0  0  0  0  0
   -0.9229    1.9369    1.1715 H   0  0  0  0  0  0  0  0  0  0  0  0
   -2.8777   -2.8900   -2.4084 H   0  0  0  0  0  0  0  0  0  0  0  0
    2.1213   -2.7891   -0.7361 H   0  0  0  0  0  0  0  0  0  0  0  0
    4.2707   -3.6994   -0.0854 H   0  0  0  0  0  0  0  0  0  0  0  0
    2.2704   -0.0308    2.5270 H   0  0  0  0  0  0  0  0  0  0  0  0
    5.6813   -4.8180    1.3994 H   0  0  0  0  0  0  0  0  0  0  0  0
    6.7246   -4.2599   -0.7950 H   0  0  0  0  0  0  0  0  0  0  0  0
    6.9942   -2.5808   -0.2251 H   0  0  0  0  0  0  0  0  0  0  0  0
    8.1084   -3.4123    2.5889 H   0  0  0  0  0  0  0  0  0  0  0  0
    7.9609   -5.1776    2.3111 H   0  0  0  0  0  0  0  0  0  0  0  0
  1  2  4  0  0  0  0
  2  3  4  0  0  0  0
  3  4  4  0  0  0  0
  4  5  4  0  0  0  0
  1  6  4  0  0  0  0
  5  6  4  0  0  0  0
  4  7  1  0  0  0  0
  7  8  2  0  0  0  0
  7  9  1  0  0  0  0
  2 10  1  0  0  0  0
 10 11  4  0  0  0  0
 11 12  4  0  0  0  0
 12 13  4  0  0  0  0
 13 14  4  0  0  0  0
 10 15  4  0  0  0  0
 14 15  4  0  0  0  0
 14 16  1  0  0  0  0
 13 17  1  0  0  0  0
 17 18  1  0  0  0  0
 18 19  1  0  0  0  0
 19 20  1  0  0  0  0
 18 21  1  0  0  0  0
 20 21  1  0  0  0  0
  3 22  1  0  0  0  0
  6 23  1  0  0  0  0
  9 24  1  0  0  0  0
 11 25  1  0  0  0  0
 12 26  1  0  0  0  0
 15 27  1  0  0  0  0
 18 28  1  0  0  0  0
 19 29  1  0  0  0  0
 19 30  1  0  0  0  0
 21 31  1  0  0  0  0
 21 32  1  0  0  0  0
M  END
