 xtb: 6.7.1 (edcfbbe)
          12172414083D

 27 28  0     0  0            999 V2000
    1.1016    0.4290    0.4941 N   0  0  0  0  0  0  0  0  0  0  0  0
    1.0880   -0.8578    0.1479 C   0  0  0  0  0  0  0  0  0  0  0  0
   -0.1212   -1.5068   -0.1184 C   0  0  0  0  0  0  0  0  0  0  0  0
   -1.2766   -0.7383   -0.0234 C   0  0  0  0  0  0  0  0  0  0  0  0
   -1.2418    0.5490    0.3035 N   0  0  0  0  0  0  0  0  0  0  0  0
   -0.0535    1.0615    0.5511 C   0  0  0  0  0  0  0  0  0  0  0  0
   -2.6312   -1.3213   -0.2891 C   0  0  0  0  0  0  0  0  0  0  0  0
   -3.6522   -0.6984   -0.3478 O   0  0  0  0  0  0  0  0  0  0  0  0
   -2.5773   -2.6513   -0.4613 O   0  0  0  0  0  0  0  0  0  0  0  0
    2.3874   -1.5416    0.0852 C   0  0  0  0  0  0  0  0  0  0  0  0
    2.5821   -2.6880   -0.6830 C   0  0  0  0  0  0  0  0  0  0  0  0
    3.8168   -3.3068   -0.7048 C   0  0  0  0  0  0  0  0  0  0  0  0
    4.8688   -2.7899    0.0347 C   0  0  0  0  0  0  0  0  0  0  0  0
    4.6929   -1.6310    0.7901 C   0  0  0  0  0  0  0  0  0  0  0  0
    3.4537   -1.0143    0.8096 C   0  0  0  0  0  0  0  0  0  0  0  0
    6.0056   -0.9650    1.6847 Cl  0  0  0  0  0  0  0  0  0  0  0  0
    6.1122   -3.4321   -0.0571 O   0  0  0  0  0  0  0  0  0  0  0  0
    6.6243   -4.0270    1.0118 C   0  0  0  0  0  0  0  0  0  0  0  0
    7.7570   -3.4543    1.4281 F   0  0  0  0  0  0  0  0  0  0  0  0
    5.8046   -4.0816    2.0664 F   0  0  0  0  0  0  0  0  0  0  0  0
    6.9460   -5.2953    0.7200 F   0  0  0  0  0  0  0  0  0  0  0  0
   -0.1762   -2.5529   -0.3647 H   0  0  0  0  0  0  0  0  0  0  0  0
   -0.0224    2.1063    0.8313 H   0  0  0  0  0  0  0  0  0  0  0  0
   -3.4684   -2.9996   -0.6251 H   0  0  0  0  0  0  0  0  0  0  0  0
    1.7808   -3.0929   -1.2799 H   0  0  0  0  0  0  0  0  0  0  0  0
    3.9868   -4.1924   -1.2964 H   0  0  0  0  0  0  0  0  0  0  0  0
    3.3030   -0.1145    1.3839 H   0  0  0  0  0  0  0  0  0  0  0  0
  1  2  4  0  0  0  0
  2  3  4  0  0  0  0
  3  4  4  0  0  0  0
  4  5  4  0  0  0  0
  1  6  4  0  0  0  0
  5  6  4  0  0  0  0
  4  7  1  0  0  0  0
  7  8  2  0  0  0  0
  7  9  1  0  0  0  0
  2 10  1  0  0  0  0
 10 11  4  0  0  0  0
 11 12  4  0  0  0  0
 12 13  4  0  0  0  0
 13 14  4  0  0  0  0
 10 15  4  0  0  0  0
 14 15  4  0  0  0  0
 14 16  1  0  0  0  0
 13 17  1  0  0  0  0
 17 18  1  0  0  0  0
 18 19  1  0  0  0  0
 18 20  1  0  0  0  0
 18 21  1  0  0  0  0
  3 22  1  0  0  0  0
  6 23  1  0  0  0  0
  9 24  1  0  0  0  0
 11 25  1  0  0  0  0
 12 26  1  0  0  0  0
 15 27  1  0  0  0  0
M  END
