 xtb: 6.7.1 (edcfbbe)
          12172414083D

 26 27  0     0  0            999 V2000
    1.1914    0.3609    0.4240 N   0  0  0  0  0  0  0  0  0  0  0  0
    1.0765   -0.9330    0.1265 C   0  0  0  0  0  0  0  0  0  0  0  0
   -0.1808   -1.4979   -0.1042 C   0  0  0  0  0  0  0  0  0  0  0  0
   -1.2733   -0.6396   -0.0300 C   0  0  0  0  0  0  0  0  0  0  0  0
   -1.1375    0.6517    0.2501 N   0  0  0  0  0  0  0  0  0  0  0  0
    0.0887    1.0811    0.4699 C   0  0  0  0  0  0  0  0  0  0  0  0
   -2.6720   -1.1239   -0.2640 C   0  0  0  0  0  0  0  0  0  0  0  0
   -3.6477   -0.4301   -0.2862 O   0  0  0  0  0  0  0  0  0  0  0  0
   -2.7169   -2.4518   -0.4543 O   0  0  0  0  0  0  0  0  0  0  0  0
    2.3236   -1.7107    0.0761 C   0  0  0  0  0  0  0  0  0  0  0  0
    2.4208   -2.9093   -0.6285 C   0  0  0  0  0  0  0  0  0  0  0  0
    3.6125   -3.6069   -0.6477 C   0  0  0  0  0  0  0  0  0  0  0  0
    4.7229   -3.1262    0.0353 C   0  0  0  0  0  0  0  0  0  0  0  0
    4.6338   -1.9206    0.7342 C   0  0  0  0  0  0  0  0  0  0  0  0
    3.4400   -1.2197    0.7480 C   0  0  0  0  0  0  0  0  0  0  0  0
    5.9921   -1.2908    1.5815 Cl  0  0  0  0  0  0  0  0  0  0  0  0
    6.0156   -3.9003    0.0114 C   0  0  0  0  0  0  0  0  0  0  0  0
    5.9167   -5.0344   -0.6977 F   0  0  0  0  0  0  0  0  0  0  0  0
    7.0233   -3.2042   -0.5383 F   0  0  0  0  0  0  0  0  0  0  0  0
    6.4218   -4.2637    1.2386 F   0  0  0  0  0  0  0  0  0  0  0  0
   -0.3196   -2.5449   -0.3109 H   0  0  0  0  0  0  0  0  0  0  0  0
    0.2024    2.1301    0.7102 H   0  0  0  0  0  0  0  0  0  0  0  0
   -3.6347   -2.7331   -0.5987 H   0  0  0  0  0  0  0  0  0  0  0  0
    1.5784   -3.2923   -1.1815 H   0  0  0  0  0  0  0  0  0  0  0  0
    3.6890   -4.5332   -1.1960 H   0  0  0  0  0  0  0  0  0  0  0  0
    3.3624   -0.2842    1.2779 H   0  0  0  0  0  0  0  0  0  0  0  0
  1  2  4  0  0  0  0
  2  3  4  0  0  0  0
  3  4  4  0  0  0  0
  4  5  4  0  0  0  0
  1  6  4  0  0  0  0
  5  6  4  0  0  0  0
  4  7  1  0  0  0  0
  7  8  2  0  0  0  0
  7  9  1  0  0  0  0
  2 10  1  0  0  0  0
 10 11  4  0  0  0  0
 11 12  4  0  0  0  0
 12 13  4  0  0  0  0
 13 14  4  0  0  0  0
 10 15  4  0  0  0  0
 14 15  4  0  0  0  0
 14 16  1  0  0  0  0
 13 17  1  0  0  0  0
 17 18  1  0  0  0  0
 17 19  1  0  0  0  0
 17 20  1  0  0  0  0
  3 21  1  0  0  0  0
  6 22  1  0  0  0  0
  9 23  1  0  0  0  0
 11 24  1  0  0  0  0
 12 25  1  0  0  0  0
 15 26  1  0  0  0  0
M  END
