 xtb: 6.7.1 (edcfbbe)
          12172414083D

 33 34  0     0  0            999 V2000
    0.8814    0.3456    0.7543 N   0  0  0  0  0  0  0  0  0  0  0  0
    0.9113   -0.8912    0.2511 C   0  0  0  0  0  0  0  0  0  0  0  0
   -0.2781   -1.5005   -0.1683 C   0  0  0  0  0  0  0  0  0  0  0  0
   -1.4448   -0.7567   -0.0454 C   0  0  0  0  0  0  0  0  0  0  0  0
   -1.4501    0.4774    0.4510 N   0  0  0  0  0  0  0  0  0  0  0  0
   -0.2820    0.9570    0.8282 C   0  0  0  0  0  0  0  0  0  0  0  0
   -2.7698   -1.3008   -0.4783 C   0  0  0  0  0  0  0  0  0  0  0  0
   -3.7843   -0.6688   -0.5638 O   0  0  0  0  0  0  0  0  0  0  0  0
   -2.7044   -2.6095   -0.7755 O   0  0  0  0  0  0  0  0  0  0  0  0
    2.2228   -1.5392    0.1757 C   0  0  0  0  0  0  0  0  0  0  0  0
    2.4263   -2.7767   -0.4343 C   0  0  0  0  0  0  0  0  0  0  0  0
    3.6859   -3.3344   -0.4678 C   0  0  0  0  0  0  0  0  0  0  0  0
    4.7947   -2.6955    0.0921 C   0  0  0  0  0  0  0  0  0  0  0  0
    4.5857   -1.4373    0.6734 C   0  0  0  0  0  0  0  0  0  0  0  0
    3.3245   -0.8786    0.7199 C   0  0  0  0  0  0  0  0  0  0  0  0
    5.9017   -0.5122    1.3070 Cl  0  0  0  0  0  0  0  0  0  0  0  0
    6.0037   -3.2891   -0.0676 O   0  0  0  0  0  0  0  0  0  0  0  0
    6.7408   -3.8317    1.0460 C   0  0  0  0  0  0  0  0  0  0  0  0
    8.0966   -3.1399    1.1570 C   0  0  0  0  0  0  0  0  0  0  0  0
    5.9789   -3.8114    2.3645 C   0  0  0  0  0  0  0  0  0  0  0  0
   -0.3129   -2.4989   -0.5676 H   0  0  0  0  0  0  0  0  0  0  0  0
   -0.2782    1.9579    1.2404 H   0  0  0  0  0  0  0  0  0  0  0  0
   -3.5795   -2.9269   -1.0502 H   0  0  0  0  0  0  0  0  0  0  0  0
    1.6083   -3.3128   -0.8881 H   0  0  0  0  0  0  0  0  0  0  0  0
    3.8498   -4.2903   -0.9415 H   0  0  0  0  0  0  0  0  0  0  0  0
    3.1746    0.0907    1.1687 H   0  0  0  0  0  0  0  0  0  0  0  0
    6.9108   -4.8800    0.7557 H   0  0  0  0  0  0  0  0  0  0  0  0
    7.9848   -2.1227    1.5194 H   0  0  0  0  0  0  0  0  0  0  0  0
    8.7330   -3.6918    1.8439 H   0  0  0  0  0  0  0  0  0  0  0  0
    8.5716   -3.1119    0.1798 H   0  0  0  0  0  0  0  0  0  0  0  0
    4.9935   -4.2593    2.2475 H   0  0  0  0  0  0  0  0  0  0  0  0
    6.5357   -4.3857    3.1001 H   0  0  0  0  0  0  0  0  0  0  0  0
    5.8626   -2.7972    2.7370 H   0  0  0  0  0  0  0  0  0  0  0  0
  1  2  4  0  0  0  0
  2  3  4  0  0  0  0
  3  4  4  0  0  0  0
  4  5  4  0  0  0  0
  1  6  4  0  0  0  0
  5  6  4  0  0  0  0
  4  7  1  0  0  0  0
  7  8  2  0  0  0  0
  7  9  1  0  0  0  0
  2 10  1  0  0  0  0
 10 11  4  0  0  0  0
 11 12  4  0  0  0  0
 12 13  4  0  0  0  0
 13 14  4  0  0  0  0
 10 15  4  0  0  0  0
 14 15  4  0  0  0  0
 14 16  1  0  0  0  0
 13 17  1  0  0  0  0
 17 18  1  0  0  0  0
 18 19  1  0  0  0  0
 18 20  1  0  0  0  0
  3 21  1  0  0  0  0
  6 22  1  0  0  0  0
  9 23  1  0  0  0  0
 11 24  1  0  0  0  0
 12 25  1  0  0  0  0
 15 26  1  0  0  0  0
 18 27  1  0  0  0  0
 19 28  1  0  0  0  0
 19 29  1  0  0  0  0
 19 30  1  0  0  0  0
 20 31  1  0  0  0  0
 20 32  1  0  0  0  0
 20 33  1  0  0  0  0
M  END
