 xtb: 6.7.1 (edcfbbe)
          12172414073D

 23 24  0     0  0            999 V2000
    0.8851    1.1692   -0.6248 N   0  0  0  0  0  0  0  0  0  0  0  0
   -0.3666    1.1811   -0.1607 C   0  0  0  0  0  0  0  0  0  0  0  0
   -0.9521   -0.0436    0.1922 C   0  0  0  0  0  0  0  0  0  0  0  0
   -0.1908   -1.2031    0.0718 C   0  0  0  0  0  0  0  0  0  0  0  0
    1.0571   -1.1636   -0.3710 N   0  0  0  0  0  0  0  0  0  0  0  0
    1.5251    0.0249   -0.7069 C   0  0  0  0  0  0  0  0  0  0  0  0
   -0.7597   -2.5413    0.4709 C   0  0  0  0  0  0  0  0  0  0  0  0
   -0.3684   -3.1953    1.3924 O   0  0  0  0  0  0  0  0  0  0  0  0
   -1.7685   -2.8851   -0.3244 O   0  0  0  0  0  0  0  0  0  0  0  0
   -2.2155   -0.1358    0.6324 F   0  0  0  0  0  0  0  0  0  0  0  0
   -1.0238    2.4889   -0.0868 C   0  0  0  0  0  0  0  0  0  0  0  0
   -0.4979    3.5334   -0.8520 C   0  0  0  0  0  0  0  0  0  0  0  0
   -1.0730    4.7854   -0.8218 C   0  0  0  0  0  0  0  0  0  0  0  0
   -2.1816    5.0244   -0.0193 C   0  0  0  0  0  0  0  0  0  0  0  0
   -2.7040    3.9919    0.7582 C   0  0  0  0  0  0  0  0  0  0  0  0
   -2.1308    2.7320    0.7246 C   0  0  0  0  0  0  0  0  0  0  0  0
   -4.0667    4.2755    1.7722 Cl  0  0  0  0  0  0  0  0  0  0  0  0
   -2.8961    6.5855    0.0158 Cl  0  0  0  0  0  0  0  0  0  0  0  0
    2.5378    0.0579   -1.0846 H   0  0  0  0  0  0  0  0  0  0  0  0
   -2.1437   -3.7415   -0.0605 H   0  0  0  0  0  0  0  0  0  0  0  0
    0.3660    3.3384   -1.4665 H   0  0  0  0  0  0  0  0  0  0  0  0
   -0.6703    5.5895   -1.4169 H   0  0  0  0  0  0  0  0  0  0  0  0
   -2.5529    1.9634    1.3503 H   0  0  0  0  0  0  0  0  0  0  0  0
  1  2  4  0  0  0  0
  2  3  4  0  0  0  0
  3  4  4  0  0  0  0
  4  5  4  0  0  0  0
  1  6  4  0  0  0  0
  5  6  4  0  0  0  0
  4  7  1  0  0  0  0
  7  8  2  0  0  0  0
  7  9  1  0  0  0  0
  3 10  1  0  0  0  0
  2 11  1  0  0  0  0
 11 12  4  0  0  0  0
 12 13  4  0  0  0  0
 13 14  4  0  0  0  0
 14 15  4  0  0  0  0
 11 16  4  0  0  0  0
 15 16  4  0  0  0  0
 15 17  1  0  0  0  0
 14 18  1  0  0  0  0
  6 19  1  0  0  0  0
  9 20  1  0  0  0  0
 12 21  1  0  0  0  0
 13 22  1  0  0  0  0
 16 23  1  0  0  0  0
M  END
