 xtb: 6.7.1 (edcfbbe)
          12172414083D

 26 27  0     0  0            999 V2000
    0.7690   -1.1550    0.0027 N   0  0  0  0  0  0  0  0  0  0  0  0
   -0.5613   -1.1541    0.0265 C   0  0  0  0  0  0  0  0  0  0  0  0
   -1.2968    0.0452    0.0648 C   0  0  0  0  0  0  0  0  0  0  0  0
   -0.5210    1.2083   -0.0064 C   0  0  0  0  0  0  0  0  0  0  0  0
    0.8060    1.1885   -0.0751 N   0  0  0  0  0  0  0  0  0  0  0  0
    1.3861    0.0070   -0.0438 C   0  0  0  0  0  0  0  0  0  0  0  0
   -1.1201    2.5845    0.0151 C   0  0  0  0  0  0  0  0  0  0  0  0
   -2.0278    2.9346    0.7238 O   0  0  0  0  0  0  0  0  0  0  0  0
   -0.5098    3.3942   -0.8418 O   0  0  0  0  0  0  0  0  0  0  0  0
   -2.7828    0.0898    0.1972 C   0  0  0  0  0  0  0  0  0  0  0  0
   -1.1811   -2.4910    0.0426 C   0  0  0  0  0  0  0  0  0  0  0  0
   -0.6457   -3.4725    0.8736 C   0  0  0  0  0  0  0  0  0  0  0  0
   -1.1944   -4.7387    0.9065 C   0  0  0  0  0  0  0  0  0  0  0  0
   -2.2761   -5.0506    0.0947 C   0  0  0  0  0  0  0  0  0  0  0  0
   -2.7968   -4.0829   -0.7613 C   0  0  0  0  0  0  0  0  0  0  0  0
   -2.2531   -2.8094   -0.7845 C   0  0  0  0  0  0  0  0  0  0  0  0
   -4.1199   -4.4598   -1.7993 Cl  0  0  0  0  0  0  0  0  0  0  0  0
   -2.9582   -6.6295    0.1405 Cl  0  0  0  0  0  0  0  0  0  0  0  0
    2.4675   -0.0108   -0.0638 H   0  0  0  0  0  0  0  0  0  0  0  0
   -0.8692    4.2944   -0.7787 H   0  0  0  0  0  0  0  0  0  0  0  0
   -3.0724    0.9234    0.8313 H   0  0  0  0  0  0  0  0  0  0  0  0
   -3.2462    0.2411   -0.7779 H   0  0  0  0  0  0  0  0  0  0  0  0
   -3.1607   -0.8366    0.6218 H   0  0  0  0  0  0  0  0  0  0  0  0
    0.2018   -3.2282    1.4938 H   0  0  0  0  0  0  0  0  0  0  0  0
   -0.7885   -5.4965    1.5575 H   0  0  0  0  0  0  0  0  0  0  0  0
   -2.6521   -2.0845   -1.4753 H   0  0  0  0  0  0  0  0  0  0  0  0
  1  2  4  0  0  0  0
  2  3  4  0  0  0  0
  3  4  4  0  0  0  0
  4  5  4  0  0  0  0
  1  6  4  0  0  0  0
  5  6  4  0  0  0  0
  4  7  1  0  0  0  0
  7  8  2  0  0  0  0
  7  9  1  0  0  0  0
  3 10  1  0  0  0  0
  2 11  1  0  0  0  0
 11 12  4  0  0  0  0
 12 13  4  0  0  0  0
 13 14  4  0  0  0  0
 14 15  4  0  0  0  0
 11 16  4  0  0  0  0
 15 16  4  0  0  0  0
 15 17  1  0  0  0  0
 14 18  1  0  0  0  0
  6 19  1  0  0  0  0
  9 20  1  0  0  0  0
 10 21  1  0  0  0  0
 10 22  1  0  0  0  0
 10 23  1  0  0  0  0
 12 24  1  0  0  0  0
 13 25  1  0  0  0  0
 16 26  1  0  0  0  0
M  END
