 xtb: 6.7.1 (edcfbbe)
          12172414073D

 23 24  0     0  0            999 V2000
    1.1827    0.3646    0.4702 N   0  0  0  0  0  0  0  0  0  0  0  0
    1.0875   -0.9230    0.1331 C   0  0  0  0  0  0  0  0  0  0  0  0
   -0.1650   -1.4908   -0.1289 C   0  0  0  0  0  0  0  0  0  0  0  0
   -1.2661   -0.6484   -0.0396 C   0  0  0  0  0  0  0  0  0  0  0  0
   -1.1484    0.6383    0.2775 N   0  0  0  0  0  0  0  0  0  0  0  0
    0.0719    1.0709    0.5216 C   0  0  0  0  0  0  0  0  0  0  0  0
   -2.6554   -1.1405   -0.2988 C   0  0  0  0  0  0  0  0  0  0  0  0
   -3.6292   -0.4488   -0.3943 O   0  0  0  0  0  0  0  0  0  0  0  0
   -2.7009   -2.4775   -0.4212 O   0  0  0  0  0  0  0  0  0  0  0  0
    2.3383   -1.6841    0.0755 C   0  0  0  0  0  0  0  0  0  0  0  0
    2.4563   -2.8595   -0.6657 C   0  0  0  0  0  0  0  0  0  0  0  0
    3.6519   -3.5499   -0.7018 C   0  0  0  0  0  0  0  0  0  0  0  0
    4.7411   -3.0707    0.0116 C   0  0  0  0  0  0  0  0  0  0  0  0
    4.6451   -1.8998    0.7508 C   0  0  0  0  0  0  0  0  0  0  0  0
    3.4501   -1.2111    0.7744 C   0  0  0  0  0  0  0  0  0  0  0  0
    6.2321   -3.9370   -0.0276 Cl  0  0  0  0  0  0  0  0  0  0  0  0
   -0.2894   -2.5325   -0.3689 H   0  0  0  0  0  0  0  0  0  0  0  0
    0.1724    2.1144    0.7914 H   0  0  0  0  0  0  0  0  0  0  0  0
   -3.6151   -2.7609   -0.5826 H   0  0  0  0  0  0  0  0  0  0  0  0
    1.6211   -3.2303   -1.2399 H   0  0  0  0  0  0  0  0  0  0  0  0
    3.7453   -4.4536   -1.2827 H   0  0  0  0  0  0  0  0  0  0  0  0
    5.5011   -1.5351    1.2969 H   0  0  0  0  0  0  0  0  0  0  0  0
    3.3539   -0.2958    1.3367 H   0  0  0  0  0  0  0  0  0  0  0  0
  1  2  4  0  0  0  0
  2  3  4  0  0  0  0
  3  4  4  0  0  0  0
  4  5  4  0  0  0  0
  1  6  4  0  0  0  0
  5  6  4  0  0  0  0
  4  7  1  0  0  0  0
  7  8  2  0  0  0  0
  7  9  1  0  0  0  0
  2 10  1  0  0  0  0
 10 11  4  0  0  0  0
 11 12  4  0  0  0  0
 12 13  4  0  0  0  0
 13 14  4  0  0  0  0
 10 15  4  0  0  0  0
 14 15  4  0  0  0  0
 13 16  1  0  0  0  0
  3 17  1  0  0  0  0
  6 18  1  0  0  0  0
  9 19  1  0  0  0  0
 11 20  1  0  0  0  0
 12 21  1  0  0  0  0
 14 22  1  0  0  0  0
 15 23  1  0  0  0  0
M  END
