 xtb: 6.7.1 (edcfbbe)
          12172414083D

 26 27  0     0  0            999 V2000
   -0.1261   -1.1588   -0.2029 N   0  0  0  0  0  0  0  0  0  0  0  0
    1.1850   -1.1508    0.0261 C   0  0  0  0  0  0  0  0  0  0  0  0
    1.8603    0.0593    0.2119 C   0  0  0  0  0  0  0  0  0  0  0  0
    1.0884    1.2125    0.1545 C   0  0  0  0  0  0  0  0  0  0  0  0
   -0.2207    1.1863   -0.0602 N   0  0  0  0  0  0  0  0  0  0  0  0
   -0.7766   -0.0043   -0.2339 C   0  0  0  0  0  0  0  0  0  0  0  0
   -2.2458   -0.0481   -0.4786 C   0  0  0  0  0  0  0  0  0  0  0  0
    1.7504    2.5420    0.3372 C   0  0  0  0  0  0  0  0  0  0  0  0
    2.9109    2.6661    0.6381 O   0  0  0  0  0  0  0  0  0  0  0  0
    0.9343    3.5671    0.1280 O   0  0  0  0  0  0  0  0  0  0  0  0
    1.8560   -2.4560    0.0473 C   0  0  0  0  0  0  0  0  0  0  0  0
    1.2258   -3.5541   -0.5389 C   0  0  0  0  0  0  0  0  0  0  0  0
    1.8343   -4.7917   -0.5491 C   0  0  0  0  0  0  0  0  0  0  0  0
    3.0823   -4.9590    0.0366 C   0  0  0  0  0  0  0  0  0  0  0  0
    3.7116   -3.8719    0.6398 C   0  0  0  0  0  0  0  0  0  0  0  0
    3.1034   -2.6288    0.6423 C   0  0  0  0  0  0  0  0  0  0  0  0
    5.2502   -4.0670    1.3912 Cl  0  0  0  0  0  0  0  0  0  0  0  0
    3.8395   -6.5024    0.0197 Cl  0  0  0  0  0  0  0  0  0  0  0  0
    2.9223    0.1324    0.3705 H   0  0  0  0  0  0  0  0  0  0  0  0
   -2.4580   -0.6599   -1.3516 H   0  0  0  0  0  0  0  0  0  0  0  0
   -2.7418   -0.5044    0.3760 H   0  0  0  0  0  0  0  0  0  0  0  0
   -2.6220    0.9597   -0.6211 H   0  0  0  0  0  0  0  0  0  0  0  0
    1.4033    4.4071    0.2587 H   0  0  0  0  0  0  0  0  0  0  0  0
    0.2543   -3.4134   -0.9846 H   0  0  0  0  0  0  0  0  0  0  0  0
    1.3509   -5.6390   -1.0084 H   0  0  0  0  0  0  0  0  0  0  0  0
    3.6054   -1.8085    1.1295 H   0  0  0  0  0  0  0  0  0  0  0  0
  1  2  4  0  0  0  0
  2  3  4  0  0  0  0
  3  4  4  0  0  0  0
  4  5  4  0  0  0  0
  1  6  4  0  0  0  0
  5  6  4  0  0  0  0
  6  7  1  0  0  0  0
  4  8  1  0  0  0  0
  8  9  2  0  0  0  0
  8 10  1  0  0  0  0
  2 11  1  0  0  0  0
 11 12  4  0  0  0  0
 12 13  4  0  0  0  0
 13 14  4  0  0  0  0
 14 15  4  0  0  0  0
 11 16  4  0  0  0  0
 15 16  4  0  0  0  0
 15 17  1  0  0  0  0
 14 18  1  0  0  0  0
  3 19  1  0  0  0  0
  7 20  1  0  0  0  0
  7 21  1  0  0  0  0
  7 22  1  0  0  0  0
 10 23  1  0  0  0  0
 12 24  1  0  0  0  0
 13 25  1  0  0  0  0
 16 26  1  0  0  0  0
M  END
