 xtb: 6.7.1 (edcfbbe)
          12172414073D

 34 36  0     0  0            999 V2000
    0.1993    0.3340    1.1675 N   0  0  0  0  0  0  0  0  0  0  0  0
    0.6056   -0.7798    0.5529 C   0  0  0  0  0  0  0  0  0  0  0  0
   -0.1799   -1.3455   -0.4600 C   0  0  0  0  0  0  0  0  0  0  0  0
   -1.3557   -0.6840   -0.7876 C   0  0  0  0  0  0  0  0  0  0  0  0
   -1.7333    0.4361   -0.1760 N   0  0  0  0  0  0  0  0  0  0  0  0
   -0.9341    0.8767    0.7751 C   0  0  0  0  0  0  0  0  0  0  0  0
   -2.2658   -1.1931   -1.8598 C   0  0  0  0  0  0  0  0  0  0  0  0
   -3.1465   -0.5681   -2.3796 O   0  0  0  0  0  0  0  0  0  0  0  0
   -1.9814   -2.4623   -2.1985 O   0  0  0  0  0  0  0  0  0  0  0  0
    1.8718   -1.3577    1.0004 C   0  0  0  0  0  0  0  0  0  0  0  0
    2.5855   -2.2802    0.2401 C   0  0  0  0  0  0  0  0  0  0  0  0
    3.7865   -2.7943    0.6896 C   0  0  0  0  0  0  0  0  0  0  0  0
    4.3103   -2.4143    1.9231 C   0  0  0  0  0  0  0  0  0  0  0  0
    3.5851   -1.4813    2.6850 C   0  0  0  0  0  0  0  0  0  0  0  0
    2.3972   -0.9575    2.2327 C   0  0  0  0  0  0  0  0  0  0  0  0
    4.2224   -0.9987    4.2128 Cl  0  0  0  0  0  0  0  0  0  0  0  0
    5.4635   -2.8616    2.4538 O   0  0  0  0  0  0  0  0  0  0  0  0
    6.2449   -3.7965    1.7449 C   0  0  0  0  0  0  0  0  0  0  0  0
    7.0450   -3.2620    0.5393 C   0  0  0  0  0  0  0  0  0  0  0  0
    8.3325   -3.8151    1.1702 C   0  0  0  0  0  0  0  0  0  0  0  0
    7.5641   -4.0950    2.4713 C   0  0  0  0  0  0  0  0  0  0  0  0
    0.0900   -2.2589   -0.9609 H   0  0  0  0  0  0  0  0  0  0  0  0
   -1.2407    1.7811    1.2849 H   0  0  0  0  0  0  0  0  0  0  0  0
   -2.5936   -2.7629   -2.8888 H   0  0  0  0  0  0  0  0  0  0  0  0
    2.2236   -2.5895   -0.7278 H   0  0  0  0  0  0  0  0  0  0  0  0
    4.3237   -3.4937    0.0699 H   0  0  0  0  0  0  0  0  0  0  0  0
    1.8561   -0.2354    2.8221 H   0  0  0  0  0  0  0  0  0  0  0  0
    5.6531   -4.6917    1.5206 H   0  0  0  0  0  0  0  0  0  0  0  0
    6.7753   -3.6656   -0.4344 H   0  0  0  0  0  0  0  0  0  0  0  0
    7.0225   -2.1750    0.4963 H   0  0  0  0  0  0  0  0  0  0  0  0
    9.1567   -3.1114    1.2517 H   0  0  0  0  0  0  0  0  0  0  0  0
    8.6866   -4.7208    0.6834 H   0  0  0  0  0  0  0  0  0  0  0  0
    7.7510   -3.3580    3.2479 H   0  0  0  0  0  0  0  0  0  0  0  0
    7.6601   -5.0932    2.8899 H   0  0  0  0  0  0  0  0  0  0  0  0
  1  2  4  0  0  0  0
  2  3  4  0  0  0  0
  3  4  4  0  0  0  0
  4  5  4  0  0  0  0
  1  6  4  0  0  0  0
  5  6  4  0  0  0  0
  4  7  1  0  0  0  0
  7  8  2  0  0  0  0
  7  9  1  0  0  0  0
  2 10  1  0  0  0  0
 10 11  4  0  0  0  0
 11 12  4  0  0  0  0
 12 13  4  0  0  0  0
 13 14  4  0  0  0  0
 10 15  4  0  0  0  0
 14 15  4  0  0  0  0
 14 16  1  0  0  0  0
 13 17  1  0  0  0  0
 17 18  1  0  0  0  0
 18 19  1  0  0  0  0
 19 20  1  0  0  0  0
 18 21  1  0  0  0  0
 20 21  1  0  0  0  0
  3 22  1  0  0  0  0
  6 23  1  0  0  0  0
  9 24  1  0  0  0  0
 11 25  1  0  0  0  0
 12 26  1  0  0  0  0
 15 27  1  0  0  0  0
 18 28  1  0  0  0  0
 19 29  1  0  0  0  0
 19 30  1  0  0  0  0
 20 31  1  0  0  0  0
 20 32  1  0  0  0  0
 21 33  1  0  0  0  0
 21 34  1  0  0  0  0
M  END
