 xtb: 6.7.1 (edcfbbe)
          12172414083D

 26 27  0     0  0            999 V2000
    1.1599    0.2537    0.7055 N   0  0  0  0  0  0  0  0  0  0  0  0
    1.0547   -0.9975    0.2533 C   0  0  0  0  0  0  0  0  0  0  0  0
   -0.1949   -1.5011   -0.1302 C   0  0  0  0  0  0  0  0  0  0  0  0
   -1.2753   -0.6334   -0.0465 C   0  0  0  0  0  0  0  0  0  0  0  0
   -1.1460    0.6180    0.3890 N   0  0  0  0  0  0  0  0  0  0  0  0
    0.0659    0.9860    0.7512 C   0  0  0  0  0  0  0  0  0  0  0  0
   -2.6525   -1.0539   -0.4497 C   0  0  0  0  0  0  0  0  0  0  0  0
   -3.6107   -0.3354   -0.5046 O   0  0  0  0  0  0  0  0  0  0  0  0
   -2.7105   -2.3604   -0.7609 O   0  0  0  0  0  0  0  0  0  0  0  0
    2.2850   -1.7904    0.1967 C   0  0  0  0  0  0  0  0  0  0  0  0
    2.4014   -2.9110   -0.6250 C   0  0  0  0  0  0  0  0  0  0  0  0
    3.5849   -3.6232   -0.6511 C   0  0  0  0  0  0  0  0  0  0  0  0
    4.6551   -3.2347    0.1367 C   0  0  0  0  0  0  0  0  0  0  0  0
    4.5618   -2.1164    0.9574 C   0  0  0  0  0  0  0  0  0  0  0  0
    3.3739   -1.4021    0.9750 C   0  0  0  0  0  0  0  0  0  0  0  0
    5.7115   -1.6974    1.8213 C   0  0  0  0  0  0  0  0  0  0  0  0
   -0.3312   -2.5156   -0.4629 H   0  0  0  0  0  0  0  0  0  0  0  0
    0.1748    1.9975    1.1215 H   0  0  0  0  0  0  0  0  0  0  0  0
   -3.6167   -2.5950   -1.0165 H   0  0  0  0  0  0  0  0  0  0  0  0
    1.5840   -3.2123   -1.2618 H   0  0  0  0  0  0  0  0  0  0  0  0
    3.6767   -4.4869   -1.2933 H   0  0  0  0  0  0  0  0  0  0  0  0
    5.5747   -3.8015    0.1086 H   0  0  0  0  0  0  0  0  0  0  0  0
    3.2711   -0.5273    1.5985 H   0  0  0  0  0  0  0  0  0  0  0  0
    5.7648   -0.6135    1.8917 H   0  0  0  0  0  0  0  0  0  0  0  0
    5.5817   -2.0931    2.8290 H   0  0  0  0  0  0  0  0  0  0  0  0
    6.6523   -2.0749    1.4277 H   0  0  0  0  0  0  0  0  0  0  0  0
  1  2  4  0  0  0  0
  2  3  4  0  0  0  0
  3  4  4  0  0  0  0
  4  5  4  0  0  0  0
  1  6  4  0  0  0  0
  5  6  4  0  0  0  0
  4  7  1  0  0  0  0
  7  8  2  0  0  0  0
  7  9  1  0  0  0  0
  2 10  1  0  0  0  0
 10 11  4  0  0  0  0
 11 12  4  0  0  0  0
 12 13  4  0  0  0  0
 13 14  4  0  0  0  0
 10 15  4  0  0  0  0
 14 15  4  0  0  0  0
 14 16  1  0  0  0  0
  3 17  1  0  0  0  0
  6 18  1  0  0  0  0
  9 19  1  0  0  0  0
 11 20  1  0  0  0  0
 12 21  1  0  0  0  0
 13 22  1  0  0  0  0
 15 23  1  0  0  0  0
 16 24  1  0  0  0  0
 16 25  1  0  0  0  0
 16 26  1  0  0  0  0
M  END
