 xtb: 6.7.1 (edcfbbe)
          12172414083D

 23 24  0     0  0            999 V2000
    1.1716    0.3622    0.5018 N   0  0  0  0  0  0  0  0  0  0  0  0
    1.0804   -0.9168    0.1389 C   0  0  0  0  0  0  0  0  0  0  0  0
   -0.1653   -1.4863   -0.1414 C   0  0  0  0  0  0  0  0  0  0  0  0
   -1.2709   -0.6488   -0.0416 C   0  0  0  0  0  0  0  0  0  0  0  0
   -1.1584    0.6308    0.2993 N   0  0  0  0  0  0  0  0  0  0  0  0
    0.0580    1.0648    0.5597 C   0  0  0  0  0  0  0  0  0  0  0  0
   -2.6583   -1.1415   -0.3179 C   0  0  0  0  0  0  0  0  0  0  0  0
   -3.6244   -0.4465   -0.4545 O   0  0  0  0  0  0  0  0  0  0  0  0
   -2.7047   -2.4799   -0.4062 O   0  0  0  0  0  0  0  0  0  0  0  0
    2.3377   -1.6744    0.0733 C   0  0  0  0  0  0  0  0  0  0  0  0
    3.4214   -1.2349    0.8310 C   0  0  0  0  0  0  0  0  0  0  0  0
    4.6143   -1.9341    0.7881 C   0  0  0  0  0  0  0  0  0  0  0  0
    4.7573   -3.0617   -0.0077 C   0  0  0  0  0  0  0  0  0  0  0  0
    3.6750   -3.4779   -0.7674 C   0  0  0  0  0  0  0  0  0  0  0  0
    2.4668   -2.8020   -0.7337 C   0  0  0  0  0  0  0  0  0  0  0  0
    3.8406   -4.8673   -1.7761 Cl  0  0  0  0  0  0  0  0  0  0  0  0
    5.9507   -1.3997    1.7347 Cl  0  0  0  0  0  0  0  0  0  0  0  0
   -0.2827   -2.5241   -0.4014 H   0  0  0  0  0  0  0  0  0  0  0  0
    0.1532    2.1032    0.8486 H   0  0  0  0  0  0  0  0  0  0  0  0
   -3.6151   -2.7680   -0.5804 H   0  0  0  0  0  0  0  0  0  0  0  0
    3.3128   -0.3530    1.4408 H   0  0  0  0  0  0  0  0  0  0  0  0
    5.6912   -3.5989   -0.0393 H   0  0  0  0  0  0  0  0  0  0  0  0
    1.6509   -3.1419   -1.3506 H   0  0  0  0  0  0  0  0  0  0  0  0
  1  2  4  0  0  0  0
  2  3  4  0  0  0  0
  3  4  4  0  0  0  0
  4  5  4  0  0  0  0
  1  6  4  0  0  0  0
  5  6  4  0  0  0  0
  4  7  1  0  0  0  0
  7  8  2  0  0  0  0
  7  9  1  0  0  0  0
  2 10  1  0  0  0  0
 10 11  4  0  0  0  0
 11 12  4  0  0  0  0
 12 13  4  0  0  0  0
 13 14  4  0  0  0  0
 10 15  4  0  0  0  0
 14 15  4  0  0  0  0
 14 16  1  0  0  0  0
 12 17  1  0  0  0  0
  3 18  1  0  0  0  0
  6 19  1  0  0  0  0
  9 20  1  0  0  0  0
 11 21  1  0  0  0  0
 13 22  1  0  0  0  0
 15 23  1  0  0  0  0
M  END
