 xtb: 6.7.1 (edcfbbe)
          12172414083D

 30 31  0     0  0            999 V2000
    1.3129    0.4217   -0.0126 N   0  0  0  0  0  0  0  0  0  0  0  0
    1.2495   -0.9095    0.0048 C   0  0  0  0  0  0  0  0  0  0  0  0
    0.0154   -1.5675    0.1117 C   0  0  0  0  0  0  0  0  0  0  0  0
   -1.1099   -0.7388    0.1315 C   0  0  0  0  0  0  0  0  0  0  0  0
   -1.0302    0.5822    0.0700 N   0  0  0  0  0  0  0  0  0  0  0  0
    0.1847    1.0961    0.0194 C   0  0  0  0  0  0  0  0  0  0  0  0
   -2.4956   -1.3186    0.2602 C   0  0  0  0  0  0  0  0  0  0  0  0
   -3.2096   -1.1621    1.2095 O   0  0  0  0  0  0  0  0  0  0  0  0
   -2.8503   -1.9699   -0.8481 O   0  0  0  0  0  0  0  0  0  0  0  0
   -0.1627   -3.0550    0.2754 C   0  0  0  0  0  0  0  0  0  0  0  0
   -1.2739   -3.3755    1.0775 O   0  0  0  0  0  0  0  0  0  0  0  0
   -1.0735   -3.1373    2.4521 C   0  0  0  0  0  0  0  0  0  0  0  0
    2.5447   -1.6037   -0.0646 C   0  0  0  0  0  0  0  0  0  0  0  0
    3.6264   -1.0847    0.6449 C   0  0  0  0  0  0  0  0  0  0  0  0
    4.8556   -1.7111    0.6057 C   0  0  0  0  0  0  0  0  0  0  0  0
    5.0299   -2.8574   -0.1578 C   0  0  0  0  0  0  0  0  0  0  0  0
    3.9613   -3.3633   -0.8954 C   0  0  0  0  0  0  0  0  0  0  0  0
    2.7253   -2.7401   -0.8468 C   0  0  0  0  0  0  0  0  0  0  0  0
    4.1657   -4.7655   -1.8744 Cl  0  0  0  0  0  0  0  0  0  0  0  0
    6.5617   -3.6377   -0.2001 Cl  0  0  0  0  0  0  0  0  0  0  0  0
    0.2573    2.1750   -0.0005 H   0  0  0  0  0  0  0  0  0  0  0  0
   -3.7417   -2.3413   -0.7471 H   0  0  0  0  0  0  0  0  0  0  0  0
   -0.3756   -3.5093   -0.6984 H   0  0  0  0  0  0  0  0  0  0  0  0
    0.7536   -3.5021    0.6880 H   0  0  0  0  0  0  0  0  0  0  0  0
   -0.2439   -3.7435    2.8341 H   0  0  0  0  0  0  0  0  0  0  0  0
   -0.8709   -2.0810    2.6564 H   0  0  0  0  0  0  0  0  0  0  0  0
   -1.9982   -3.4221    2.9474 H   0  0  0  0  0  0  0  0  0  0  0  0
    3.4871   -0.1877    1.2266 H   0  0  0  0  0  0  0  0  0  0  0  0
    5.6911   -1.3173    1.1622 H   0  0  0  0  0  0  0  0  0  0  0  0
    1.9208   -3.1272   -1.4510 H   0  0  0  0  0  0  0  0  0  0  0  0
  1  2  4  0  0  0  0
  2  3  4  0  0  0  0
  3  4  4  0  0  0  0
  4  5  4  0  0  0  0
  1  6  4  0  0  0  0
  5  6  4  0  0  0  0
  4  7  1  0  0  0  0
  7  8  2  0  0  0  0
  7  9  1  0  0  0  0
  3 10  1  0  0  0  0
 10 11  1  0  0  0  0
 11 12  1  0  0  0  0
  2 13  1  0  0  0  0
 13 14  4  0  0  0  0
 14 15  4  0  0  0  0
 15 16  4  0  0  0  0
 16 17  4  0  0  0  0
 13 18  4  0  0  0  0
 17 18  4  0  0  0  0
 17 19  1  0  0  0  0
 16 20  1  0  0  0  0
  6 21  1  0  0  0  0
  9 22  1  0  0  0  0
 10 23  1  0  0  0  0
 10 24  1  0  0  0  0
 12 25  1  0  0  0  0
 12 26  1  0  0  0  0
 12 27  1  0  0  0  0
 14 28  1  0  0  0  0
 15 29  1  0  0  0  0
 18 30  1  0  0  0  0
M  END
