 xtb: 6.7.1 (edcfbbe)
          12172414083D

 23 24  0     0  0            999 V2000
    1.1697    0.4235    0.4105 N   0  0  0  0  0  0  0  0  0  0  0  0
    1.0980   -0.8682    0.0849 C   0  0  0  0  0  0  0  0  0  0  0  0
   -0.1469   -1.4705   -0.1350 C   0  0  0  0  0  0  0  0  0  0  0  0
   -1.2665   -0.6577   -0.0151 C   0  0  0  0  0  0  0  0  0  0  0  0
   -1.1730    0.6344    0.2899 N   0  0  0  0  0  0  0  0  0  0  0  0
    0.0425    1.1005    0.4910 C   0  0  0  0  0  0  0  0  0  0  0  0
   -2.6498   -1.1877   -0.2225 C   0  0  0  0  0  0  0  0  0  0  0  0
   -3.6478   -0.5254   -0.2647 O   0  0  0  0  0  0  0  0  0  0  0  0
   -2.6619   -2.5240   -0.3645 O   0  0  0  0  0  0  0  0  0  0  0  0
    2.3638   -1.6009   -0.0047 C   0  0  0  0  0  0  0  0  0  0  0  0
    3.4689   -1.1312    0.7052 C   0  0  0  0  0  0  0  0  0  0  0  0
    4.6735   -1.8040    0.6475 C   0  0  0  0  0  0  0  0  0  0  0  0
    4.7952   -2.9458   -0.1288 C   0  0  0  0  0  0  0  0  0  0  0  0
    3.7069   -3.4100   -0.8496 C   0  0  0  0  0  0  0  0  0  0  0  0
    2.4957   -2.7467   -0.7877 C   0  0  0  0  0  0  0  0  0  0  0  0
   -0.2482   -2.5173   -0.3654 H   0  0  0  0  0  0  0  0  0  0  0  0
    0.1237    2.1485    0.7514 H   0  0  0  0  0  0  0  0  0  0  0  0
   -3.5738   -2.8310   -0.4918 H   0  0  0  0  0  0  0  0  0  0  0  0
    3.3576   -0.2386    1.3007 H   0  0  0  0  0  0  0  0  0  0  0  0
    5.5219   -1.4374    1.2063 H   0  0  0  0  0  0  0  0  0  0  0  0
    5.7378   -3.4705   -0.1770 H   0  0  0  0  0  0  0  0  0  0  0  0
    3.8036   -4.2928   -1.4647 H   0  0  0  0  0  0  0  0  0  0  0  0
    1.6607   -3.1075   -1.3700 H   0  0  0  0  0  0  0  0  0  0  0  0
  1  2  4  0  0  0  0
  2  3  4  0  0  0  0
  3  4  4  0  0  0  0
  4  5  4  0  0  0  0
  1  6  4  0  0  0  0
  5  6  4  0  0  0  0
  4  7  1  0  0  0  0
  7  8  2  0  0  0  0
  7  9  1  0  0  0  0
  2 10  1  0  0  0  0
 10 11  4  0  0  0  0
 11 12  4  0  0  0  0
 12 13  4  0  0  0  0
 13 14  4  0  0  0  0
 10 15  4  0  0  0  0
 14 15  4  0  0  0  0
  3 16  1  0  0  0  0
  6 17  1  0  0  0  0
  9 18  1  0  0  0  0
 11 19  1  0  0  0  0
 12 20  1  0  0  0  0
 13 21  1  0  0  0  0
 14 22  1  0  0  0  0
 15 23  1  0  0  0  0
M  END
