 xtb: 6.7.1 (edcfbbe)
          12172414083D

 23 24  0     0  0            999 V2000
    1.1609    0.3983    0.2781 N   0  0  0  0  0  0  0  0  0  0  0  0
    1.0870   -0.9133    0.0489 C   0  0  0  0  0  0  0  0  0  0  0  0
   -0.1523   -1.5366   -0.1185 C   0  0  0  0  0  0  0  0  0  0  0  0
   -1.2738   -0.7163   -0.0495 C   0  0  0  0  0  0  0  0  0  0  0  0
   -1.1819    0.5926    0.1591 N   0  0  0  0  0  0  0  0  0  0  0  0
    0.0330    1.0780    0.3153 C   0  0  0  0  0  0  0  0  0  0  0  0
   -2.6574   -1.2671   -0.2115 C   0  0  0  0  0  0  0  0  0  0  0  0
   -3.6479   -0.6109   -0.3683 O   0  0  0  0  0  0  0  0  0  0  0  0
   -2.6706   -2.6068   -0.1622 O   0  0  0  0  0  0  0  0  0  0  0  0
    2.3700   -1.6318    0.0314 C   0  0  0  0  0  0  0  0  0  0  0  0
    3.4366   -1.1183    0.7707 C   0  0  0  0  0  0  0  0  0  0  0  0
    4.6571   -1.7621    0.7981 C   0  0  0  0  0  0  0  0  0  0  0  0
    4.8502   -2.9300    0.0790 C   0  0  0  0  0  0  0  0  0  0  0  0
    3.8119   -3.4478   -0.6794 C   0  0  0  0  0  0  0  0  0  0  0  0
    2.5813   -2.8001   -0.6985 C   0  0  0  0  0  0  0  0  0  0  0  0
    1.6027   -3.3101   -1.4656 F   0  0  0  0  0  0  0  0  0  0  0  0
    4.0336   -4.8895   -1.6012 Cl  0  0  0  0  0  0  0  0  0  0  0  0
   -0.2573   -2.5948   -0.2803 H   0  0  0  0  0  0  0  0  0  0  0  0
    0.1137    2.1423    0.4931 H   0  0  0  0  0  0  0  0  0  0  0  0
   -3.5771   -2.9347   -0.2758 H   0  0  0  0  0  0  0  0  0  0  0  0
    3.2748   -0.2050    1.3199 H   0  0  0  0  0  0  0  0  0  0  0  0
    5.4681   -1.3557    1.3817 H   0  0  0  0  0  0  0  0  0  0  0  0
    5.7991   -3.4413    0.0949 H   0  0  0  0  0  0  0  0  0  0  0  0
  1  2  4  0  0  0  0
  2  3  4  0  0  0  0
  3  4  4  0  0  0  0
  4  5  4  0  0  0  0
  1  6  4  0  0  0  0
  5  6  4  0  0  0  0
  4  7  1  0  0  0  0
  7  8  2  0  0  0  0
  7  9  1  0  0  0  0
  2 10  1  0  0  0  0
 10 11  4  0  0  0  0
 11 12  4  0  0  0  0
 12 13  4  0  0  0  0
 13 14  4  0  0  0  0
 10 15  4  0  0  0  0
 14 15  4  0  0  0  0
 15 16  1  0  0  0  0
 14 17  1  0  0  0  0
  3 18  1  0  0  0  0
  6 19  1  0  0  0  0
  9 20  1  0  0  0  0
 11 21  1  0  0  0  0
 12 22  1  0  0  0  0
 13 23  1  0  0  0  0
M  END
