 xtb: 6.7.1 (edcfbbe)
          12172414083D

 27 28  0     0  0            999 V2000
    1.2786    0.2999    0.5655 N   0  0  0  0  0  0  0  0  0  0  0  0
    1.2455   -0.9586    0.1285 C   0  0  0  0  0  0  0  0  0  0  0  0
    0.0108   -1.5598   -0.1839 C   0  0  0  0  0  0  0  0  0  0  0  0
   -1.1139   -0.7303   -0.1074 C   0  0  0  0  0  0  0  0  0  0  0  0
   -1.0444    0.5308    0.2905 N   0  0  0  0  0  0  0  0  0  0  0  0
    0.1504    0.9710    0.6391 C   0  0  0  0  0  0  0  0  0  0  0  0
   -2.4600   -1.2691   -0.5098 C   0  0  0  0  0  0  0  0  0  0  0  0
   -3.0842   -0.9143   -1.4662 O   0  0  0  0  0  0  0  0  0  0  0  0
   -2.8690   -2.2163    0.3374 O   0  0  0  0  0  0  0  0  0  0  0  0
   -0.1466   -2.8531   -0.6014 O   0  0  0  0  0  0  0  0  0  0  0  0
    0.1433   -3.8490    0.3657 C   0  0  0  0  0  0  0  0  0  0  0  0
    2.5465   -1.6272   -0.0048 C   0  0  0  0  0  0  0  0  0  0  0  0
    3.5898   -1.2629    0.8460 C   0  0  0  0  0  0  0  0  0  0  0  0
    4.8262   -1.8646    0.7320 C   0  0  0  0  0  0  0  0  0  0  0  0
    5.0454   -2.8299   -0.2419 C   0  0  0  0  0  0  0  0  0  0  0  0
    4.0135   -3.1817   -1.1105 C   0  0  0  0  0  0  0  0  0  0  0  0
    2.7710   -2.5833   -0.9930 C   0  0  0  0  0  0  0  0  0  0  0  0
    4.2743   -4.3626   -2.3376 Cl  0  0  0  0  0  0  0  0  0  0  0  0
    6.5870   -3.5798   -0.3755 Cl  0  0  0  0  0  0  0  0  0  0  0  0
    0.2075    1.9861    1.0072 H   0  0  0  0  0  0  0  0  0  0  0  0
   -3.7321   -2.5669    0.0616 H   0  0  0  0  0  0  0  0  0  0  0  0
    1.1531   -3.7449    0.7715 H   0  0  0  0  0  0  0  0  0  0  0  0
   -0.5854   -3.8068    1.1811 H   0  0  0  0  0  0  0  0  0  0  0  0
    0.0543   -4.7996   -0.1553 H   0  0  0  0  0  0  0  0  0  0  0  0
    3.4125   -0.5053    1.5921 H   0  0  0  0  0  0  0  0  0  0  0  0
    5.6332   -1.5915    1.3931 H   0  0  0  0  0  0  0  0  0  0  0  0
    1.9878   -2.8548   -1.6832 H   0  0  0  0  0  0  0  0  0  0  0  0
  1  2  4  0  0  0  0
  2  3  4  0  0  0  0
  3  4  4  0  0  0  0
  4  5  4  0  0  0  0
  1  6  4  0  0  0  0
  5  6  4  0  0  0  0
  4  7  1  0  0  0  0
  7  8  2  0  0  0  0
  7  9  1  0  0  0  0
  3 10  1  0  0  0  0
 10 11  1  0  0  0  0
  2 12  1  0  0  0  0
 12 13  4  0  0  0  0
 13 14  4  0  0  0  0
 14 15  4  0  0  0  0
 15 16  4  0  0  0  0
 12 17  4  0  0  0  0
 16 17  4  0  0  0  0
 16 18  1  0  0  0  0
 15 19  1  0  0  0  0
  6 20  1  0  0  0  0
  9 21  1  0  0  0  0
 11 22  1  0  0  0  0
 11 23  1  0  0  0  0
 11 24  1  0  0  0  0
 13 25  1  0  0  0  0
 14 26  1  0  0  0  0
 17 27  1  0  0  0  0
M  END
