 xtb: 6.7.1 (edcfbbe)
          12172414073D

 34 36  0     0  0            999 V2000
    0.5279    0.3093    1.0389 N   0  0  0  0  0  0  0  0  0  0  0  0
    0.6490   -0.8749    0.4316 C   0  0  0  0  0  0  0  0  0  0  0  0
   -0.4606   -1.4520   -0.2003 C   0  0  0  0  0  0  0  0  0  0  0  0
   -1.6447   -0.7272   -0.1773 C   0  0  0  0  0  0  0  0  0  0  0  0
   -1.7405    0.4571    0.4226 N   0  0  0  0  0  0  0  0  0  0  0  0
   -0.6462    0.9036    1.0057 C   0  0  0  0  0  0  0  0  0  0  0  0
   -2.8866   -1.2319   -0.8411 C   0  0  0  0  0  0  0  0  0  0  0  0
   -3.8767   -0.5863   -1.0413 O   0  0  0  0  0  0  0  0  0  0  0  0
   -2.7742   -2.5189   -1.2117 O   0  0  0  0  0  0  0  0  0  0  0  0
    1.9676   -1.5037    0.4739 C   0  0  0  0  0  0  0  0  0  0  0  0
    2.3254   -2.5841   -0.3351 C   0  0  0  0  0  0  0  0  0  0  0  0
    3.5930   -3.1071   -0.2636 C   0  0  0  0  0  0  0  0  0  0  0  0
    4.5699   -2.6073    0.6126 C   0  0  0  0  0  0  0  0  0  0  0  0
    4.1923   -1.5416    1.4398 C   0  0  0  0  0  0  0  0  0  0  0  0
    2.9228   -1.0013    1.3542 C   0  0  0  0  0  0  0  0  0  0  0  0
    5.2359   -0.8385    2.6374 Cl  0  0  0  0  0  0  0  0  0  0  0  0
    5.7452   -3.2583    0.5376 O   0  0  0  0  0  0  0  0  0  0  0  0
    6.9577   -2.7582    1.0668 C   0  0  0  0  0  0  0  0  0  0  0  0
    8.1601   -3.5210    0.4872 C   0  0  0  0  0  0  0  0  0  0  0  0
    8.8149   -2.1819    0.1139 C   0  0  0  0  0  0  0  0  0  0  0  0
    7.5012   -1.4574    0.4456 C   0  0  0  0  0  0  0  0  0  0  0  0
   -0.4205   -2.4152   -0.6784 H   0  0  0  0  0  0  0  0  0  0  0  0
   -0.7189    1.8611    1.5059 H   0  0  0  0  0  0  0  0  0  0  0  0
   -3.5968   -2.8089   -1.6374 H   0  0  0  0  0  0  0  0  0  0  0  0
    1.6262   -3.0033   -1.0409 H   0  0  0  0  0  0  0  0  0  0  0  0
    3.8856   -3.9331   -0.8928 H   0  0  0  0  0  0  0  0  0  0  0  0
    2.6506   -0.1728    1.9887 H   0  0  0  0  0  0  0  0  0  0  0  0
    6.9332   -2.7548    2.1594 H   0  0  0  0  0  0  0  0  0  0  0  0
    7.8662   -4.1113   -0.3771 H   0  0  0  0  0  0  0  0  0  0  0  0
    8.7031   -4.1506    1.1871 H   0  0  0  0  0  0  0  0  0  0  0  0
    9.6276   -1.9077    0.7827 H   0  0  0  0  0  0  0  0  0  0  0  0
    9.1569   -2.0938   -0.9145 H   0  0  0  0  0  0  0  0  0  0  0  0
    6.9342   -1.1686   -0.4380 H   0  0  0  0  0  0  0  0  0  0  0  0
    7.5760   -0.6059    1.1170 H   0  0  0  0  0  0  0  0  0  0  0  0
  1  2  4  0  0  0  0
  2  3  4  0  0  0  0
  3  4  4  0  0  0  0
  4  5  4  0  0  0  0
  1  6  4  0  0  0  0
  5  6  4  0  0  0  0
  4  7  1  0  0  0  0
  7  8  2  0  0  0  0
  7  9  1  0  0  0  0
  2 10  1  0  0  0  0
 10 11  4  0  0  0  0
 11 12  4  0  0  0  0
 12 13  4  0  0  0  0
 13 14  4  0  0  0  0
 10 15  4  0  0  0  0
 14 15  4  0  0  0  0
 14 16  1  0  0  0  0
 13 17  1  0  0  0  0
 17 18  1  0  0  0  0
 18 19  1  0  0  0  0
 19 20  1  0  0  0  0
 18 21  1  0  0  0  0
 20 21  1  0  0  0  0
  3 22  1  0  0  0  0
  6 23  1  0  0  0  0
  9 24  1  0  0  0  0
 11 25  1  0  0  0  0
 12 26  1  0  0  0  0
 15 27  1  0  0  0  0
 18 28  1  0  0  0  0
 19 29  1  0  0  0  0
 19 30  1  0  0  0  0
 20 31  1  0  0  0  0
 20 32  1  0  0  0  0
 21 33  1  0  0  0  0
 21 34  1  0  0  0  0
M  END
