 xtb: 6.7.1 (edcfbbe)
          12172414073D

 37 39  0     0  0            999 V2000
    0.6971    0.3204    0.8015 N   0  0  0  0  0  0  0  0  0  0  0  0
    0.7236   -0.8986    0.2556 C   0  0  0  0  0  0  0  0  0  0  0  0
   -0.4381   -1.4303   -0.3202 C   0  0  0  0  0  0  0  0  0  0  0  0
   -1.5730   -0.6310   -0.3011 C   0  0  0  0  0  0  0  0  0  0  0  0
   -1.5746    0.5861    0.2374 N   0  0  0  0  0  0  0  0  0  0  0  0
   -0.4359    0.9897    0.7639 C   0  0  0  0  0  0  0  0  0  0  0  0
   -2.8661   -1.0939   -0.8936 C   0  0  0  0  0  0  0  0  0  0  0  0
   -3.8335   -0.4094   -1.0717 O   0  0  0  0  0  0  0  0  0  0  0  0
   -2.8321   -2.3976   -1.2203 O   0  0  0  0  0  0  0  0  0  0  0  0
    1.9933   -1.6191    0.3086 C   0  0  0  0  0  0  0  0  0  0  0  0
    2.2429   -2.7912   -0.4083 C   0  0  0  0  0  0  0  0  0  0  0  0
    3.4600   -3.4133   -0.2980 C   0  0  0  0  0  0  0  0  0  0  0  0
    4.5060   -2.9333    0.5139 C   0  0  0  0  0  0  0  0  0  0  0  0
    4.2487   -1.7439    1.2093 C   0  0  0  0  0  0  0  0  0  0  0  0
    3.0195   -1.1163    1.1016 C   0  0  0  0  0  0  0  0  0  0  0  0
    5.3875   -0.9246    2.2325 Cl  0  0  0  0  0  0  0  0  0  0  0  0
    5.5962   -3.7189    0.4216 O   0  0  0  0  0  0  0  0  0  0  0  0
    6.7248   -3.8211    1.2770 C   0  0  0  0  0  0  0  0  0  0  0  0
    7.8190   -2.7605    1.0986 C   0  0  0  0  0  0  0  0  0  0  0  0
    8.6357   -2.9137    2.3778 C   0  0  0  0  0  0  0  0  0  0  0  0
    7.5807   -3.1228    3.4679 C   0  0  0  0  0  0  0  0  0  0  0  0
    6.4406   -3.8974    2.7895 C   0  0  0  0  0  0  0  0  0  0  0  0
   -0.4737   -2.4148   -0.7521 H   0  0  0  0  0  0  0  0  0  0  0  0
   -0.4312    1.9748    1.2126 H   0  0  0  0  0  0  0  0  0  0  0  0
   -3.6857   -2.6633   -1.5980 H   0  0  0  0  0  0  0  0  0  0  0  0
    1.4959   -3.2154   -1.0596 H   0  0  0  0  0  0  0  0  0  0  0  0
    3.6649   -4.3189   -0.8475 H   0  0  0  0  0  0  0  0  0  0  0  0
    2.8419   -0.2009    1.6442 H   0  0  0  0  0  0  0  0  0  0  0  0
    7.1415   -4.7825    0.9491 H   0  0  0  0  0  0  0  0  0  0  0  0
    8.4049   -2.9395    0.1981 H   0  0  0  0  0  0  0  0  0  0  0  0
    7.3875   -1.7644    1.0344 H   0  0  0  0  0  0  0  0  0  0  0  0
    9.2650   -2.0477    2.5744 H   0  0  0  0  0  0  0  0  0  0  0  0
    9.2755   -3.7946    2.3018 H   0  0  0  0  0  0  0  0  0  0  0  0
    7.2222   -2.1567    3.8206 H   0  0  0  0  0  0  0  0  0  0  0  0
    7.9836   -3.6628    4.3229 H   0  0  0  0  0  0  0  0  0  0  0  0
    5.4680   -3.4676    3.0235 H   0  0  0  0  0  0  0  0  0  0  0  0
    6.4216   -4.9384    3.1111 H   0  0  0  0  0  0  0  0  0  0  0  0
  1  2  4  0  0  0  0
  2  3  4  0  0  0  0
  3  4  4  0  0  0  0
  4  5  4  0  0  0  0
  1  6  4  0  0  0  0
  5  6  4  0  0  0  0
  4  7  1  0  0  0  0
  7  8  2  0  0  0  0
  7  9  1  0  0  0  0
  2 10  1  0  0  0  0
 10 11  4  0  0  0  0
 11 12  2  0  0  0  0
 12 13  4  0  0  0  0
 13 14  4  0  0  0  0
 10 15  4  0  0  0  0
 14 15  4  0  0  0  0
 14 16  1  0  0  0  0
 13 17  1  0  0  0  0
 17 18  1  0  0  0  0
 18 19  1  0  0  0  0
 19 20  1  0  0  0  0
 20 21  1  0  0  0  0
 18 22  1  0  0  0  0
 21 22  1  0  0  0  0
  3 23  1  0  0  0  0
  6 24  1  0  0  0  0
  9 25  1  0  0  0  0
 11 26  1  0  0  0  0
 12 27  1  0  0  0  0
 15 28  1  0  0  0  0
 18 29  1  0  0  0  0
 19 30  1  0  0  0  0
 19 31  1  0  0  0  0
 20 32  1  0  0  0  0
 20 33  1  0  0  0  0
 21 34  1  0  0  0  0
 21 35  1  0  0  0  0
 22 36  1  0  0  0  0
 22 37  1  0  0  0  0
M  END
