 xtb: 6.7.1 (edcfbbe)
          12172414083D

 23 24  0     0  0            999 V2000
    1.1889    0.3379    0.4533 N   0  0  0  0  0  0  0  0  0  0  0  0
    1.0750   -0.9448    0.1029 C   0  0  0  0  0  0  0  0  0  0  0  0
   -0.1825   -1.5024   -0.1446 C   0  0  0  0  0  0  0  0  0  0  0  0
   -1.2736   -0.6462   -0.0356 C   0  0  0  0  0  0  0  0  0  0  0  0
   -1.1405    0.6342    0.2934 N   0  0  0  0  0  0  0  0  0  0  0  0
    0.0862    1.0538    0.5293 C   0  0  0  0  0  0  0  0  0  0  0  0
   -2.6696   -1.1227   -0.2971 C   0  0  0  0  0  0  0  0  0  0  0  0
   -3.6141   -0.4135   -0.5006 O   0  0  0  0  0  0  0  0  0  0  0  0
   -2.7503   -2.4609   -0.2851 O   0  0  0  0  0  0  0  0  0  0  0  0
    2.3333   -1.7000    0.0343 C   0  0  0  0  0  0  0  0  0  0  0  0
    3.4242   -1.2525    0.7838 C   0  0  0  0  0  0  0  0  0  0  0  0
    4.6341   -1.9143    0.7695 C   0  0  0  0  0  0  0  0  0  0  0  0
    4.7652   -3.0448   -0.0205 C   0  0  0  0  0  0  0  0  0  0  0  0
    3.7211   -3.5163   -0.7951 C   0  0  0  0  0  0  0  0  0  0  0  0
    2.5184   -2.8359   -0.7545 C   0  0  0  0  0  0  0  0  0  0  0  0
    1.5264   -3.2960   -1.5379 F   0  0  0  0  0  0  0  0  0  0  0  0
    5.9352   -3.7010   -0.0440 F   0  0  0  0  0  0  0  0  0  0  0  0
   -0.3242   -2.5381   -0.3998 H   0  0  0  0  0  0  0  0  0  0  0  0
    0.2003    2.0921    0.8130 H   0  0  0  0  0  0  0  0  0  0  0  0
   -3.6628   -2.7401   -0.4629 H   0  0  0  0  0  0  0  0  0  0  0  0
    3.2912   -0.3641    1.3805 H   0  0  0  0  0  0  0  0  0  0  0  0
    5.4708   -1.5690    1.3549 H   0  0  0  0  0  0  0  0  0  0  0  0
    3.8373   -4.3873   -1.4193 H   0  0  0  0  0  0  0  0  0  0  0  0
  1  2  4  0  0  0  0
  2  3  4  0  0  0  0
  3  4  4  0  0  0  0
  4  5  4  0  0  0  0
  1  6  4  0  0  0  0
  5  6  4  0  0  0  0
  4  7  1  0  0  0  0
  7  8  2  0  0  0  0
  7  9  1  0  0  0  0
  2 10  1  0  0  0  0
 10 11  4  0  0  0  0
 11 12  4  0  0  0  0
 12 13  4  0  0  0  0
 13 14  4  0  0  0  0
 10 15  4  0  0  0  0
 14 15  4  0  0  0  0
 15 16  1  0  0  0  0
 13 17  1  0  0  0  0
  3 18  1  0  0  0  0
  6 19  1  0  0  0  0
  9 20  1  0  0  0  0
 11 21  1  0  0  0  0
 12 22  1  0  0  0  0
 14 23  1  0  0  0  0
M  END
