 xtb: 6.7.1 (edcfbbe)
          12172414083D

 43 45  0     0  0            999 V2000
    1.6647   -0.3541   -0.5064 O   0  0  0  0  0  0  0  0  0  0  0  0
    0.7796    0.2518    0.4122 C   0  0  0  0  0  0  0  0  0  0  0  0
    0.4812    1.7264    0.0838 C   0  0  0  0  0  0  0  0  0  0  0  0
    1.6011    2.5815    0.4394 N   0  0  0  0  0  0  0  0  0  0  0  0
    1.2922    3.6763    1.3444 C   0  0  0  0  0  0  0  0  0  0  0  0
    0.6163    4.8505    0.6255 C   0  0  0  0  0  0  0  0  0  0  0  0
    1.4144    5.3142   -0.4419 O   0  0  0  0  0  0  0  0  0  0  0  0
    1.6741    4.2802   -1.3676 C   0  0  0  0  0  0  0  0  0  0  0  0
    2.3654    3.0897   -0.6909 C   0  0  0  0  0  0  0  0  0  0  0  0
    3.0006   -0.3105   -0.3259 C   0  0  0  0  0  0  0  0  0  0  0  0
    3.6746    0.3642    0.6887 C   0  0  0  0  0  0  0  0  0  0  0  0
    5.0515    0.3136    0.7797 C   0  0  0  0  0  0  0  0  0  0  0  0
    5.8092   -0.4092   -0.1395 C   0  0  0  0  0  0  0  0  0  0  0  0
    7.2675   -0.4921   -0.0812 C   0  0  0  0  0  0  0  0  0  0  0  0
    7.8798   -1.0599   -1.1241 N   0  0  0  0  0  0  0  0  0  0  0  0
    9.1928   -1.1474   -1.0995 C   0  0  0  0  0  0  0  0  0  0  0  0
    9.9948   -0.7239   -0.1436 N   0  0  0  0  0  0  0  0  0  0  0  0
    9.4056   -0.1614    0.9091 C   0  0  0  0  0  0  0  0  0  0  0  0
    8.0274   -0.0218    0.9987 C   0  0  0  0  0  0  0  0  0  0  0  0
   10.3157    0.3141    1.9964 C   0  0  0  0  0  0  0  0  0  0  0  0
   11.5107    0.2213    1.9915 O   0  0  0  0  0  0  0  0  0  0  0  0
    9.6397    0.8756    3.0139 O   0  0  0  0  0  0  0  0  0  0  0  0
    5.1412   -1.0755   -1.1717 C   0  0  0  0  0  0  0  0  0  0  0  0
    3.7703   -1.0275   -1.2589 C   0  0  0  0  0  0  0  0  0  0  0  0
    2.9539   -1.8555   -2.5338 Cl  0  0  0  0  0  0  0  0  0  0  0  0
   -0.1470   -0.3222    0.3142 H   0  0  0  0  0  0  0  0  0  0  0  0
    1.1487    0.1585    1.4377 H   0  0  0  0  0  0  0  0  0  0  0  0
    0.2403    1.7882   -0.9831 H   0  0  0  0  0  0  0  0  0  0  0  0
   -0.4113    2.0092    0.6484 H   0  0  0  0  0  0  0  0  0  0  0  0
    2.2403    4.0240    1.7666 H   0  0  0  0  0  0  0  0  0  0  0  0
    0.6603    3.3112    2.1558 H   0  0  0  0  0  0  0  0  0  0  0  0
   -0.3708    4.5399    0.2461 H   0  0  0  0  0  0  0  0  0  0  0  0
    0.4881    5.6988    1.2993 H   0  0  0  0  0  0  0  0  0  0  0  0
    2.3149    4.7144   -2.1360 H   0  0  0  0  0  0  0  0  0  0  0  0
    0.7292    3.9547   -1.8318 H   0  0  0  0  0  0  0  0  0  0  0  0
    3.3376    3.4143   -0.3076 H   0  0  0  0  0  0  0  0  0  0  0  0
    2.5282    2.2870   -1.4105 H   0  0  0  0  0  0  0  0  0  0  0  0
    3.1202    0.9624    1.3926 H   0  0  0  0  0  0  0  0  0  0  0  0
    5.5306    0.8636    1.5741 H   0  0  0  0  0  0  0  0  0  0  0  0
    9.6630   -1.6134   -1.9561 H   0  0  0  0  0  0  0  0  0  0  0  0
    7.5841    0.4231    1.8720 H   0  0  0  0  0  0  0  0  0  0  0  0
   10.2640    1.1701    3.6961 H   0  0  0  0  0  0  0  0  0  0  0  0
    5.7186   -1.6286   -1.8944 H   0  0  0  0  0  0  0  0  0  0  0  0
  1  2  1  0  0  0  0
  2  3  1  0  0  0  0
  3  4  1  0  0  0  0
  4  5  1  0  0  0  0
  5  6  1  0  0  0  0
  6  7  1  0  0  0  0
  7  8  1  0  0  0  0
  4  9  1  0  0  0  0
  8  9  1  0  0  0  0
  1 10  1  0  0  0  0
 10 11  4  0  0  0  0
 11 12  4  0  0  0  0
 12 13  4  0  0  0  0
 13 14  1  0  0  0  0
 14 15  4  0  0  0  0
 15 16  4  0  0  0  0
 16 17  4  0  0  0  0
 17 18  4  0  0  0  0
 14 19  4  0  0  0  0
 18 19  4  0  0  0  0
 18 20  1  0  0  0  0
 20 21  2  0  0  0  0
 20 22  1  0  0  0  0
 13 23  4  0  0  0  0
 10 24  4  0  0  0  0
 23 24  4  0  0  0  0
 24 25  1  0  0  0  0
  2 26  1  0  0  0  0
  2 27  1  0  0  0  0
  3 28  1  0  0  0  0
  3 29  1  0  0  0  0
  5 30  1  0  0  0  0
  5 31  1  0  0  0  0
  6 32  1  0  0  0  0
  6 33  1  0  0  0  0
  8 34  1  0  0  0  0
  8 35  1  0  0  0  0
  9 36  1  0  0  0  0
  9 37  1  0  0  0  0
 11 38  1  0  0  0  0
 12 39  1  0  0  0  0
 16 40  1  0  0  0  0
 19 41  1  0  0  0  0
 22 42  1  0  0  0  0
 23 43  1  0  0  0  0
M  END
