 xtb: 6.7.1 (edcfbbe)
          12172414073D

 24 25  0     0  0            999 V2000
   -0.3098    1.1568    0.5476 N   0  0  0  0  0  0  0  0  0  0  0  0
    0.9523    1.1290    0.1424 C   0  0  0  0  0  0  0  0  0  0  0  0
    1.5713   -0.1207   -0.1452 C   0  0  0  0  0  0  0  0  0  0  0  0
    0.7553   -1.2563    0.0230 C   0  0  0  0  0  0  0  0  0  0  0  0
   -0.5138   -1.1763    0.4200 N   0  0  0  0  0  0  0  0  0  0  0  0
   -0.9803    0.0250    0.6642 C   0  0  0  0  0  0  0  0  0  0  0  0
    1.3071   -2.6059   -0.2379 C   0  0  0  0  0  0  0  0  0  0  0  0
    2.4619   -2.7948   -0.5821 O   0  0  0  0  0  0  0  0  0  0  0  0
    0.4448   -3.5880   -0.0678 O   0  0  0  0  0  0  0  0  0  0  0  0
    2.8427   -0.2045   -0.5302 O   0  0  0  0  0  0  0  0  0  0  0  0
    1.6271    2.4271    0.0438 C   0  0  0  0  0  0  0  0  0  0  0  0
    2.7982    2.6317   -0.6853 C   0  0  0  0  0  0  0  0  0  0  0  0
    3.3744    3.8860   -0.7418 C   0  0  0  0  0  0  0  0  0  0  0  0
    2.8004    4.9568   -0.0730 C   0  0  0  0  0  0  0  0  0  0  0  0
    1.6252    4.7629    0.6528 C   0  0  0  0  0  0  0  0  0  0  0  0
    1.0450    3.5113    0.7051 C   0  0  0  0  0  0  0  0  0  0  0  0
    0.8936    6.0809    1.4867 Cl  0  0  0  0  0  0  0  0  0  0  0  0
    3.5350    6.5091   -0.1435 Cl  0  0  0  0  0  0  0  0  0  0  0  0
   -2.0077    0.0984    0.9919 H   0  0  0  0  0  0  0  0  0  0  0  0
    0.8600   -4.4474   -0.2493 H   0  0  0  0  0  0  0  0  0  0  0  0
    3.0793   -1.1558   -0.6460 H   0  0  0  0  0  0  0  0  0  0  0  0
    3.2602    1.8179   -1.2167 H   0  0  0  0  0  0  0  0  0  0  0  0
    4.2789    4.0441   -1.3077 H   0  0  0  0  0  0  0  0  0  0  0  0
    0.1333    3.3558    1.2585 H   0  0  0  0  0  0  0  0  0  0  0  0
  1  2  4  0  0  0  0
  2  3  4  0  0  0  0
  3  4  4  0  0  0  0
  4  5  4  0  0  0  0
  1  6  4  0  0  0  0
  5  6  4  0  0  0  0
  4  7  1  0  0  0  0
  7  8  2  0  0  0  0
  7  9  1  0  0  0  0
  3 10  1  0  0  0  0
  2 11  1  0  0  0  0
 11 12  4  0  0  0  0
 12 13  4  0  0  0  0
 13 14  4  0  0  0  0
 14 15  4  0  0  0  0
 11 16  4  0  0  0  0
 15 16  4  0  0  0  0
 15 17  1  0  0  0  0
 14 18  1  0  0  0  0
  6 19  1  0  0  0  0
  9 20  1  0  0  0  0
 10 21  1  0  0  0  0
 12 22  1  0  0  0  0
 13 23  1  0  0  0  0
 16 24  1  0  0  0  0
M  END
