 xtb: 6.7.1 (edcfbbe)
          12172414083D

 25 26  0     0  0            999 V2000
   -0.4028    1.1747    0.3006 N   0  0  0  0  0  0  0  0  0  0  0  0
    0.8997    1.1437    0.0936 C   0  0  0  0  0  0  0  0  0  0  0  0
    1.5998   -0.0920   -0.0337 C   0  0  0  0  0  0  0  0  0  0  0  0
    0.7747   -1.2429   -0.0025 C   0  0  0  0  0  0  0  0  0  0  0  0
   -0.5424   -1.1637    0.1695 N   0  0  0  0  0  0  0  0  0  0  0  0
   -1.0650    0.0269    0.3319 C   0  0  0  0  0  0  0  0  0  0  0  0
    1.3497   -2.5988   -0.1276 C   0  0  0  0  0  0  0  0  0  0  0  0
    2.5386   -2.8336   -0.2332 O   0  0  0  0  0  0  0  0  0  0  0  0
    0.4403   -3.5633   -0.0973 O   0  0  0  0  0  0  0  0  0  0  0  0
    2.9354   -0.1692   -0.1811 N   0  0  0  0  0  0  0  0  0  0  0  0
    1.5809    2.4464    0.0220 C   0  0  0  0  0  0  0  0  0  0  0  0
    2.5590    2.7205   -0.9328 C   0  0  0  0  0  0  0  0  0  0  0  0
    3.1597    3.9645   -0.9798 C   0  0  0  0  0  0  0  0  0  0  0  0
    2.7996    4.9506   -0.0736 C   0  0  0  0  0  0  0  0  0  0  0  0
    1.8064    4.6905    0.8697 C   0  0  0  0  0  0  0  0  0  0  0  0
    1.1977    3.4494    0.9091 C   0  0  0  0  0  0  0  0  0  0  0  0
    1.3330    5.9111    1.9892 Cl  0  0  0  0  0  0  0  0  0  0  0  0
    3.5692    6.4889   -0.1284 Cl  0  0  0  0  0  0  0  0  0  0  0  0
   -2.1313    0.0838    0.4984 H   0  0  0  0  0  0  0  0  0  0  0  0
    0.8688   -4.4310   -0.1727 H   0  0  0  0  0  0  0  0  0  0  0  0
    3.5041    0.6370    0.0100 H   0  0  0  0  0  0  0  0  0  0  0  0
    3.3442   -1.0951   -0.1664 H   0  0  0  0  0  0  0  0  0  0  0  0
    2.8224    1.9786   -1.6712 H   0  0  0  0  0  0  0  0  0  0  0  0
    3.9105    4.1808   -1.7233 H   0  0  0  0  0  0  0  0  0  0  0  0
    0.4190    3.2489    1.6272 H   0  0  0  0  0  0  0  0  0  0  0  0
  1  2  4  0  0  0  0
  2  3  4  0  0  0  0
  3  4  4  0  0  0  0
  4  5  4  0  0  0  0
  1  6  4  0  0  0  0
  5  6  4  0  0  0  0
  4  7  1  0  0  0  0
  7  8  2  0  0  0  0
  7  9  1  0  0  0  0
  3 10  4  0  0  0  0
  2 11  1  0  0  0  0
 11 12  4  0  0  0  0
 12 13  4  0  0  0  0
 13 14  4  0  0  0  0
 14 15  4  0  0  0  0
 11 16  4  0  0  0  0
 15 16  4  0  0  0  0
 15 17  1  0  0  0  0
 14 18  1  0  0  0  0
  6 19  1  0  0  0  0
  9 20  1  0  0  0  0
 10 21  1  0  0  0  0
 10 22  1  0  0  0  0
 12 23  1  0  0  0  0
 13 24  1  0  0  0  0
 16 25  1  0  0  0  0
M  END
