 xtb: 6.7.1 (edcfbbe)
          12172414083D

 35 37  0     0  0            999 V2000
   -1.1106    0.2913    0.3472 N   0  0  0  0  0  0  0  0  0  0  0  0
   -2.2340    0.9078    0.7908 C   0  0  0  0  0  0  0  0  0  0  0  0
   -2.8943    1.8430   -0.0371 C   0  0  0  0  0  0  0  0  0  0  0  0
   -4.0261    2.5096    0.3537 C   0  0  0  0  0  0  0  0  0  0  0  0
   -4.5937    2.2973    1.6136 C   0  0  0  0  0  0  0  0  0  0  0  0
   -5.7848    3.0346    2.0026 C   0  0  0  0  0  0  0  0  0  0  0  0
   -6.3603    3.7911    1.0596 N   0  0  0  0  0  0  0  0  0  0  0  0
   -7.4411    4.4673    1.3842 C   0  0  0  0  0  0  0  0  0  0  0  0
   -8.0438    4.4865    2.5559 N   0  0  0  0  0  0  0  0  0  0  0  0
   -7.4821    3.7471    3.5127 C   0  0  0  0  0  0  0  0  0  0  0  0
   -6.3378    2.9962    3.2925 C   0  0  0  0  0  0  0  0  0  0  0  0
   -8.1622    3.7646    4.8428 C   0  0  0  0  0  0  0  0  0  0  0  0
   -9.2326    4.2545    5.0718 O   0  0  0  0  0  0  0  0  0  0  0  0
   -7.4346    3.1499    5.7924 O   0  0  0  0  0  0  0  0  0  0  0  0
   -3.9802    1.3536    2.4380 C   0  0  0  0  0  0  0  0  0  0  0  0
   -2.8505    0.6745    2.0391 C   0  0  0  0  0  0  0  0  0  0  0  0
   -2.2850   -0.5366    3.1605 Cl  0  0  0  0  0  0  0  0  0  0  0  0
   -0.1182   -0.3866    1.1650 C   0  0  0  0  0  0  0  0  0  0  0  0
    1.1351   -0.4164    0.2929 C   0  0  0  0  0  0  0  0  0  0  0  0
    0.5500   -0.5068   -1.1111 C   0  0  0  0  0  0  0  0  0  0  0  0
   -0.6409    0.4411   -1.0189 C   0  0  0  0  0  0  0  0  0  0  0  0
   -2.4885    2.0551   -1.0114 H   0  0  0  0  0  0  0  0  0  0  0  0
   -4.4950    3.2223   -0.3055 H   0  0  0  0  0  0  0  0  0  0  0  0
   -7.8847    5.0724    0.6031 H   0  0  0  0  0  0  0  0  0  0  0  0
   -5.9055    2.4208    4.0921 H   0  0  0  0  0  0  0  0  0  0  0  0
   -7.9096    3.1821    6.6379 H   0  0  0  0  0  0  0  0  0  0  0  0
   -4.3964    1.1127    3.4031 H   0  0  0  0  0  0  0  0  0  0  0  0
   -0.4416   -1.4080    1.3942 H   0  0  0  0  0  0  0  0  0  0  0  0
    0.0487    0.1482    2.1013 H   0  0  0  0  0  0  0  0  0  0  0  0
    1.6977    0.5113    0.4053 H   0  0  0  0  0  0  0  0  0  0  0  0
    1.7858   -1.2519    0.5399 H   0  0  0  0  0  0  0  0  0  0  0  0
    1.2519   -0.2124   -1.8879 H   0  0  0  0  0  0  0  0  0  0  0  0
    0.2092   -1.5231   -1.3107 H   0  0  0  0  0  0  0  0  0  0  0  0
   -0.3168    1.4733   -1.2088 H   0  0  0  0  0  0  0  0  0  0  0  0
   -1.4321    0.1844   -1.7278 H   0  0  0  0  0  0  0  0  0  0  0  0
  1  2  4  0  0  0  0
  2  3  4  0  0  0  0
  3  4  2  0  0  0  0
  4  5  4  0  0  0  0
  5  6  1  0  0  0  0
  6  7  4  0  0  0  0
  7  8  4  0  0  0  0
  8  9  4  0  0  0  0
  9 10  4  0  0  0  0
  6 11  4  0  0  0  0
 10 11  4  0  0  0  0
 10 12  1  0  0  0  0
 12 13  2  0  0  0  0
 12 14  1  0  0  0  0
  5 15  4  0  0  0  0
  2 16  4  0  0  0  0
 15 16  4  0  0  0  0
 16 17  1  0  0  0  0
  1 18  1  0  0  0  0
 18 19  1  0  0  0  0
 19 20  1  0  0  0  0
  1 21  1  0  0  0  0
 20 21  1  0  0  0  0
  3 22  1  0  0  0  0
  4 23  1  0  0  0  0
  8 24  1  0  0  0  0
 11 25  1  0  0  0  0
 14 26  1  0  0  0  0
 15 27  1  0  0  0  0
 18 28  1  0  0  0  0
 18 29  1  0  0  0  0
 19 30  1  0  0  0  0
 19 31  1  0  0  0  0
 20 32  1  0  0  0  0
 20 33  1  0  0  0  0
 21 34  1  0  0  0  0
 21 35  1  0  0  0  0
M  END
