 xtb: 6.7.1 (edcfbbe)
          12172414083D

 40 42  0     0  0            999 V2000
    0.2872    0.5993   -0.1812 N   0  0  0  0  0  0  0  0  0  0  0  0
    0.5839   -0.6948   -0.0361 C   0  0  0  0  0  0  0  0  0  0  0  0
   -0.4246   -1.6604   -0.1589 C   0  0  0  0  0  0  0  0  0  0  0  0
   -1.7099   -1.1985   -0.4078 C   0  0  0  0  0  0  0  0  0  0  0  0
   -1.9872    0.0976   -0.5310 N   0  0  0  0  0  0  0  0  0  0  0  0
   -0.9666    0.9233   -0.4183 C   0  0  0  0  0  0  0  0  0  0  0  0
   -2.8680   -2.1355   -0.5426 C   0  0  0  0  0  0  0  0  0  0  0  0
   -4.0237   -1.8175   -0.5248 O   0  0  0  0  0  0  0  0  0  0  0  0
   -2.4708   -3.4114   -0.6849 O   0  0  0  0  0  0  0  0  0  0  0  0
    1.9824   -1.0208    0.2367 C   0  0  0  0  0  0  0  0  0  0  0  0
    2.3884   -2.2559    0.7343 C   0  0  0  0  0  0  0  0  0  0  0  0
    3.7200   -2.5162    0.9964 C   0  0  0  0  0  0  0  0  0  0  0  0
    4.7007   -1.5549    0.7578 C   0  0  0  0  0  0  0  0  0  0  0  0
    4.2805   -0.3102    0.2524 C   0  0  0  0  0  0  0  0  0  0  0  0
    2.9558   -0.0439    0.0046 C   0  0  0  0  0  0  0  0  0  0  0  0
    5.4777    0.8933   -0.0510 Cl  0  0  0  0  0  0  0  0  0  0  0  0
    6.0230   -1.6953    0.9491 O   0  0  0  0  0  0  0  0  0  0  0  0
    6.5655   -2.8725    1.5359 C   0  0  0  0  0  0  0  0  0  0  0  0
    8.0547   -2.8770    1.1917 C   0  0  0  0  0  0  0  0  0  0  0  0
    8.7455   -4.0827    1.8195 C   0  0  0  0  0  0  0  0  0  0  0  0
    8.5537   -4.0822    3.3330 C   0  0  0  0  0  0  0  0  0  0  0  0
    7.0682   -4.0751    3.6807 C   0  0  0  0  0  0  0  0  0  0  0  0
    6.3769   -2.8674    3.0549 C   0  0  0  0  0  0  0  0  0  0  0  0
   -0.2290   -2.7156   -0.0814 H   0  0  0  0  0  0  0  0  0  0  0  0
   -1.1807    1.9787   -0.5310 H   0  0  0  0  0  0  0  0  0  0  0  0
   -3.2472   -3.9864   -0.7763 H   0  0  0  0  0  0  0  0  0  0  0  0
    1.6632   -3.0256    0.9478 H   0  0  0  0  0  0  0  0  0  0  0  0
    3.9912   -3.4824    1.3911 H   0  0  0  0  0  0  0  0  0  0  0  0
    2.6506    0.9186   -0.3721 H   0  0  0  0  0  0  0  0  0  0  0  0
    6.0936   -3.7631    1.0974 H   0  0  0  0  0  0  0  0  0  0  0  0
    8.1715   -2.8882    0.1071 H   0  0  0  0  0  0  0  0  0  0  0  0
    8.4963   -1.9525    1.5664 H   0  0  0  0  0  0  0  0  0  0  0  0
    9.8092   -4.0598    1.5775 H   0  0  0  0  0  0  0  0  0  0  0  0
    8.3270   -5.0009    1.4005 H   0  0  0  0  0  0  0  0  0  0  0  0
    9.0285   -3.1954    3.7578 H   0  0  0  0  0  0  0  0  0  0  0  0
    9.0325   -4.9607    3.7689 H   0  0  0  0  0  0  0  0  0  0  0  0
    6.9379   -4.0479    4.7639 H   0  0  0  0  0  0  0  0  0  0  0  0
    6.6040   -4.9928    3.3108 H   0  0  0  0  0  0  0  0  0  0  0  0
    6.8104   -1.9459    3.4489 H   0  0  0  0  0  0  0  0  0  0  0  0
    5.3133   -2.8671    3.3024 H   0  0  0  0  0  0  0  0  0  0  0  0
  1  2  4  0  0  0  0
  2  3  4  0  0  0  0
  3  4  4  0  0  0  0
  4  5  4  0  0  0  0
  1  6  4  0  0  0  0
  5  6  4  0  0  0  0
  4  7  1  0  0  0  0
  7  8  2  0  0  0  0
  7  9  1  0  0  0  0
  2 10  1  0  0  0  0
 10 11  4  0  0  0  0
 11 12  4  0  0  0  0
 12 13  4  0  0  0  0
 13 14  4  0  0  0  0
 10 15  4  0  0  0  0
 14 15  4  0  0  0  0
 14 16  1  0  0  0  0
 13 17  1  0  0  0  0
 17 18  1  0  0  0  0
 18 19  1  0  0  0  0
 19 20  1  0  0  0  0
 20 21  1  0  0  0  0
 21 22  1  0  0  0  0
 18 23  1  0  0  0  0
 22 23  1  0  0  0  0
  3 24  1  0  0  0  0
  6 25  1  0  0  0  0
  9 26  1  0  0  0  0
 11 27  1  0  0  0  0
 12 28  1  0  0  0  0
 15 29  1  0  0  0  0
 18 30  1  0  0  0  0
 19 31  1  0  0  0  0
 19 32  1  0  0  0  0
 20 33  1  0  0  0  0
 20 34  1  0  0  0  0
 21 35  1  0  0  0  0
 21 36  1  0  0  0  0
 22 37  1  0  0  0  0
 22 38  1  0  0  0  0
 23 39  1  0  0  0  0
 23 40  1  0  0  0  0
M  END
