 xtb: 6.7.1 (edcfbbe)
          12172414083D

 22 23  0     0  0            999 V2000
    1.1826    0.4220    0.3543 N   0  0  0  0  0  0  0  0  0  0  0  0
    1.0993   -0.8790    0.0753 C   0  0  0  0  0  0  0  0  0  0  0  0
   -0.1480   -1.4848   -0.1148 C   0  0  0  0  0  0  0  0  0  0  0  0
   -1.2625   -0.6597   -0.0249 C   0  0  0  0  0  0  0  0  0  0  0  0
   -1.1592    0.6398    0.2384 N   0  0  0  0  0  0  0  0  0  0  0  0
    0.0590    1.1068    0.4223 C   0  0  0  0  0  0  0  0  0  0  0  0
   -2.6492   -1.1857   -0.2255 C   0  0  0  0  0  0  0  0  0  0  0  0
   -3.6420   -0.5174   -0.2821 O   0  0  0  0  0  0  0  0  0  0  0  0
   -2.6678   -2.5239   -0.3447 O   0  0  0  0  0  0  0  0  0  0  0  0
    2.3584   -1.6225    0.0038 C   0  0  0  0  0  0  0  0  0  0  0  0
    2.4994   -2.8004   -0.7288 C   0  0  0  0  0  0  0  0  0  0  0  0
    3.7264   -3.4401   -0.7364 C   0  0  0  0  0  0  0  0  0  0  0  0
    4.7711   -2.8764   -0.0170 C   0  0  0  0  0  0  0  0  0  0  0  0
    4.6501   -1.7584    0.6795 N   0  0  0  0  0  0  0  0  0  0  0  0
    3.4825   -1.1504    0.6898 C   0  0  0  0  0  0  0  0  0  0  0  0
   -0.2556   -2.5387   -0.3070 H   0  0  0  0  0  0  0  0  0  0  0  0
    0.1467    2.1613    0.6504 H   0  0  0  0  0  0  0  0  0  0  0  0
   -3.5807   -2.8286   -0.4699 H   0  0  0  0  0  0  0  0  0  0  0  0
    1.6754   -3.1962   -1.3041 H   0  0  0  0  0  0  0  0  0  0  0  0
    3.8725   -4.3503   -1.2971 H   0  0  0  0  0  0  0  0  0  0  0  0
    5.7510   -3.3346    0.0010 H   0  0  0  0  0  0  0  0  0  0  0  0
    3.4148   -0.2411    1.2706 H   0  0  0  0  0  0  0  0  0  0  0  0
  1  2  4  0  0  0  0
  2  3  4  0  0  0  0
  3  4  4  0  0  0  0
  4  5  4  0  0  0  0
  1  6  4  0  0  0  0
  5  6  4  0  0  0  0
  4  7  1  0  0  0  0
  7  8  2  0  0  0  0
  7  9  1  0  0  0  0
  2 10  1  0  0  0  0
 10 11  4  0  0  0  0
 11 12  4  0  0  0  0
 12 13  4  0  0  0  0
 13 14  4  0  0  0  0
 10 15  4  0  0  0  0
 14 15  4  0  0  0  0
  3 16  1  0  0  0  0
  6 17  1  0  0  0  0
  9 18  1  0  0  0  0
 11 19  1  0  0  0  0
 12 20  1  0  0  0  0
 13 21  1  0  0  0  0
 15 22  1  0  0  0  0
M  END
