 xtb: 6.7.1 (edcfbbe)
          12172414083D

 21 22  0     0  0            999 V2000
   -0.7846   -1.0982    0.1554 N   0  0  0  0  0  0  0  0  0  0  0  0
   -1.4256    0.0489   -0.0772 C   0  0  0  0  0  0  0  0  0  0  0  0
   -0.7097    1.2435   -0.2053 C   0  0  0  0  0  0  0  0  0  0  0  0
    0.6762    1.1536   -0.0883 C   0  0  0  0  0  0  0  0  0  0  0  0
    1.3013   -0.0045    0.1225 N   0  0  0  0  0  0  0  0  0  0  0  0
    0.5296   -1.0664    0.2349 C   0  0  0  0  0  0  0  0  0  0  0  0
    1.4692    2.3336   -0.1830 C   0  0  0  0  0  0  0  0  0  0  0  0
    2.0645    3.3080   -0.2588 N   0  0  0  0  0  0  0  0  0  0  0  0
   -2.8877   -0.0161   -0.1628 C   0  0  0  0  0  0  0  0  0  0  0  0
   -3.6372    0.9442   -0.8405 C   0  0  0  0  0  0  0  0  0  0  0  0
   -5.0134    0.8424   -0.8948 C   0  0  0  0  0  0  0  0  0  0  0  0
   -5.6644   -0.2112   -0.2672 C   0  0  0  0  0  0  0  0  0  0  0  0
   -4.9203   -1.1799    0.4069 C   0  0  0  0  0  0  0  0  0  0  0  0
   -3.5421   -1.0837    0.4502 C   0  0  0  0  0  0  0  0  0  0  0  0
   -5.7124   -2.4950    1.1850 Cl  0  0  0  0  0  0  0  0  0  0  0  0
   -7.3777   -0.3199   -0.3317 Cl  0  0  0  0  0  0  0  0  0  0  0  0
   -1.1908    2.1949   -0.3604 H   0  0  0  0  0  0  0  0  0  0  0  0
    1.0295   -2.0096    0.4142 H   0  0  0  0  0  0  0  0  0  0  0  0
   -3.1520    1.7610   -1.3522 H   0  0  0  0  0  0  0  0  0  0  0  0
   -5.5958    1.5794   -1.4249 H   0  0  0  0  0  0  0  0  0  0  0  0
   -2.9585   -1.8328    0.9611 H   0  0  0  0  0  0  0  0  0  0  0  0
  1  2  4  0  0  0  0
  2  3  4  0  0  0  0
  3  4  4  0  0  0  0
  4  5  4  0  0  0  0
  1  6  4  0  0  0  0
  5  6  4  0  0  0  0
  4  7  1  0  0  0  0
  7  8  3  0  0  0  0
  2  9  1  0  0  0  0
  9 10  4  0  0  0  0
 10 11  4  0  0  0  0
 11 12  4  0  0  0  0
 12 13  4  0  0  0  0
  9 14  4  0  0  0  0
 13 14  4  0  0  0  0
 13 15  1  0  0  0  0
 12 16  1  0  0  0  0
  3 17  1  0  0  0  0
  6 18  1  0  0  0  0
 10 19  1  0  0  0  0
 11 20  1  0  0  0  0
 14 21  1  0  0  0  0
M  END
