 xtb: 6.7.1 (edcfbbe)
          12172414083D

 23 24  0     0  0            999 V2000
    1.1637    0.3759    0.5009 N   0  0  0  0  0  0  0  0  0  0  0  0
    1.0807   -0.9068    0.1461 C   0  0  0  0  0  0  0  0  0  0  0  0
   -0.1627   -1.4839   -0.1310 C   0  0  0  0  0  0  0  0  0  0  0  0
   -1.2724   -0.6514   -0.0390 C   0  0  0  0  0  0  0  0  0  0  0  0
   -1.1676    0.6306    0.2959 N   0  0  0  0  0  0  0  0  0  0  0  0
    0.0462    1.0720    0.5553 C   0  0  0  0  0  0  0  0  0  0  0  0
   -2.6563   -1.1524   -0.3182 C   0  0  0  0  0  0  0  0  0  0  0  0
   -3.6292   -0.4640   -0.4382 O   0  0  0  0  0  0  0  0  0  0  0  0
   -2.6911   -2.4895   -0.4287 O   0  0  0  0  0  0  0  0  0  0  0  0
    2.3428   -1.6538    0.0862 C   0  0  0  0  0  0  0  0  0  0  0  0
    3.4488   -1.1701    0.7856 C   0  0  0  0  0  0  0  0  0  0  0  0
    4.6534   -1.8436    0.7569 C   0  0  0  0  0  0  0  0  0  0  0  0
    4.7681   -3.0081    0.0163 C   0  0  0  0  0  0  0  0  0  0  0  0
    3.6741   -3.4908   -0.6938 C   0  0  0  0  0  0  0  0  0  0  0  0
    2.4655   -2.8238   -0.6602 C   0  0  0  0  0  0  0  0  0  0  0  0
    3.7845   -4.6123   -1.4235 F   0  0  0  0  0  0  0  0  0  0  0  0
    5.9366   -3.6633   -0.0170 F   0  0  0  0  0  0  0  0  0  0  0  0
   -0.2776   -2.5233   -0.3854 H   0  0  0  0  0  0  0  0  0  0  0  0
    0.1357    2.1124    0.8392 H   0  0  0  0  0  0  0  0  0  0  0  0
   -3.5994   -2.7829   -0.6050 H   0  0  0  0  0  0  0  0  0  0  0  0
    3.3420   -0.2577    1.3495 H   0  0  0  0  0  0  0  0  0  0  0  0
    5.5131   -1.4818    1.2980 H   0  0  0  0  0  0  0  0  0  0  0  0
    1.6469   -3.2197   -1.2393 H   0  0  0  0  0  0  0  0  0  0  0  0
  1  2  4  0  0  0  0
  2  3  4  0  0  0  0
  3  4  4  0  0  0  0
  4  5  4  0  0  0  0
  1  6  4  0  0  0  0
  5  6  4  0  0  0  0
  4  7  1  0  0  0  0
  7  8  2  0  0  0  0
  7  9  1  0  0  0  0
  2 10  1  0  0  0  0
 10 11  4  0  0  0  0
 11 12  4  0  0  0  0
 12 13  4  0  0  0  0
 13 14  4  0  0  0  0
 10 15  4  0  0  0  0
 14 15  4  0  0  0  0
 14 16  1  0  0  0  0
 13 17  1  0  0  0  0
  3 18  1  0  0  0  0
  6 19  1  0  0  0  0
  9 20  1  0  0  0  0
 11 21  1  0  0  0  0
 12 22  1  0  0  0  0
 15 23  1  0  0  0  0
M  END
