 xtb: 6.7.1 (edcfbbe)
          12172414073D

 23 24  0     0  0            999 V2000
    1.1725    0.3715    0.4768 N   0  0  0  0  0  0  0  0  0  0  0  0
    1.0804   -0.9162    0.1437 C   0  0  0  0  0  0  0  0  0  0  0  0
   -0.1684   -1.4891   -0.1205 C   0  0  0  0  0  0  0  0  0  0  0  0
   -1.2717   -0.6478   -0.0407 C   0  0  0  0  0  0  0  0  0  0  0  0
   -1.1576    0.6396    0.2718 N   0  0  0  0  0  0  0  0  0  0  0  0
    0.0602    1.0760    0.5219 C   0  0  0  0  0  0  0  0  0  0  0  0
   -2.6587   -1.1430   -0.3087 C   0  0  0  0  0  0  0  0  0  0  0  0
   -3.6263   -0.4505   -0.4504 O   0  0  0  0  0  0  0  0  0  0  0  0
   -2.7071   -2.4831   -0.3847 O   0  0  0  0  0  0  0  0  0  0  0  0
    2.3354   -1.6749    0.0898 C   0  0  0  0  0  0  0  0  0  0  0  0
    2.4644   -2.8360   -0.6708 C   0  0  0  0  0  0  0  0  0  0  0  0
    3.6663   -3.5198   -0.7050 C   0  0  0  0  0  0  0  0  0  0  0  0
    4.7553   -3.0672    0.0200 C   0  0  0  0  0  0  0  0  0  0  0  0
    4.6153   -1.9099    0.7671 C   0  0  0  0  0  0  0  0  0  0  0  0
    3.4312   -1.2036    0.8109 C   0  0  0  0  0  0  0  0  0  0  0  0
    5.6706   -1.4604    1.4735 F   0  0  0  0  0  0  0  0  0  0  0  0
   -0.2885   -2.5324   -0.3564 H   0  0  0  0  0  0  0  0  0  0  0  0
    0.1574    2.1203    0.7887 H   0  0  0  0  0  0  0  0  0  0  0  0
   -3.6188   -2.7697   -0.5542 H   0  0  0  0  0  0  0  0  0  0  0  0
    1.6337   -3.1961   -1.2573 H   0  0  0  0  0  0  0  0  0  0  0  0
    3.7584   -4.4140   -1.3022 H   0  0  0  0  0  0  0  0  0  0  0  0
    5.6988   -3.5894    0.0089 H   0  0  0  0  0  0  0  0  0  0  0  0
    3.3460   -0.3005    1.3928 H   0  0  0  0  0  0  0  0  0  0  0  0
  1  2  4  0  0  0  0
  2  3  4  0  0  0  0
  3  4  4  0  0  0  0
  4  5  4  0  0  0  0
  1  6  4  0  0  0  0
  5  6  4  0  0  0  0
  4  7  1  0  0  0  0
  7  8  2  0  0  0  0
  7  9  1  0  0  0  0
  2 10  1  0  0  0  0
 10 11  4  0  0  0  0
 11 12  4  0  0  0  0
 12 13  4  0  0  0  0
 13 14  4  0  0  0  0
 10 15  4  0  0  0  0
 14 15  4  0  0  0  0
 14 16  1  0  0  0  0
  3 17  1  0  0  0  0
  6 18  1  0  0  0  0
  9 19  1  0  0  0  0
 11 20  1  0  0  0  0
 12 21  1  0  0  0  0
 13 22  1  0  0  0  0
 15 23  1  0  0  0  0
M  END
